/*---------------------------------------------------------------------------*\
  =========                 |
  \\      /  F ield         | OpenFOAM: The Open Source CFD Toolbox
   \\    /   O peration     | Website:  https://openfoam.org
    \\  /    A nd           | Version:  8
     \\/     M anipulation  |
\*---------------------------------------------------------------------------*/
Build  : 8-1c9b5879390b
Exec   : CG_Solver
Date   : Aug 10 2021
Time   : 14:07:41
Host   : "Lukasinator"
PID    : 15871
I/O    : uncollated
Case   : /home/lukas/000_MA/programming_experiments/03_CellGrowthSolver/testCase
nProcs : 1
sigFpe : Enabling floating point exception trapping (FOAM_SIGFPE).
fileModificationChecking : Monitoring run-time modified files using timeStampMaster (fileModificationSkew 10)
allowSystemOperations : Allowing user-supplied system call operations

// * * * * * * * * * * * * * * * * * * * * * * * * * * * * * * * * * * * * * //
Create time

Create mesh for time = 0


Reading pressure field

Reading velocity field

Creating flux field

Reading Celldata info

CellDensity:0.5
MueMax0.00118056
Calculated Mue0:0.00118032
Substrate:5
Ks:0.001
Yxs0.98

Reading field corrections

alpha:0.01
pRefCell99
pRefValue0
Runtime: 0.05
smoothSolver:  Solving for Ux, Initial residual = 1, Final residual = 0.0941634, No Iterations 20
smoothSolver:  Solving for Uy, Initial residual = 1, Final residual = 0.0683699, No Iterations 6
smoothSolver:  Solving for Uz, Initial residual = 1, Final residual = 0.0973561, No Iterations 16
GAMG:  Solving for p, Initial residual = 1, Final residual = 0.0398128, No Iterations 4

Time = 0.05
Cells = 0.50003 g/L
Substrate = 4.50994

Runtime: 0.1
