/*---------------------------------------------------------------------------*\
  =========                 |
  \\      /  F ield         | OpenFOAM: The Open Source CFD Toolbox
   \\    /   O peration     | Website:  https://openfoam.org
    \\  /    A nd           | Version:  8
     \\/     M anipulation  |
\*---------------------------------------------------------------------------*/
Build  : 8-1c9b5879390b
Exec   : snappyHexMesh -overwrite
Date   : Aug 10 2021
Time   : 14:07:23
Host   : "Lukasinator"
PID    : 15867
I/O    : uncollated
Case   : /home/lukas/000_MA/programming_experiments/03_CellGrowthSolver/testCase
nProcs : 1
sigFpe : Enabling floating point exception trapping (FOAM_SIGFPE).
fileModificationChecking : Monitoring run-time modified files using timeStampMaster (fileModificationSkew 10)
allowSystemOperations : Allowing user-supplied system call operations

// * * * * * * * * * * * * * * * * * * * * * * * * * * * * * * * * * * * * * //
Create time

Create mesh for time = 0

Read mesh in = 0.39 s

Overall mesh bounding box  : (-0.05 -0.05 -0.02) (0.05 0.05 0.15)
Relative tolerance         : 1e-06
Absolute matching distance : 2.21133e-07

Reading refinement surfaces.
Read refinement surfaces in = 0.02 s

Reading refinement shells.
Read refinement shells in = 0 s

Setting refinement level of surface to be consistent with shells.
Checked shell refinement in = 0 s

Reading features.
Read edgeMesh wall1.eMesh
    points      : 332
    edges       : 332
    boundingBox : (-0.0149992 -0.0149992 -1.12899e-17) (0.0149992 0.0149992 0.052)

Refinement level according to distance to "wall1.eMesh" (332 points, 332 edges).
    level 1 for all cells within 0 metre.
Read edgeMesh top.eMesh
    points      : 210
    edges       : 210
    boundingBox : (-0.0149952 -0.0149971 0.052) (0.0149998 0.0149992 0.056)

Refinement level according to distance to "top.eMesh" (210 points, 210 edges).
    level 1 for all cells within 0 metre.
Read edgeMesh stirrer.eMesh
    points      : 135
    edges       : 155
    boundingBox : (-0.00701427 -0.00687312 0.000910833) (0.0060986 0.0067401 0.007)

Refinement level according to distance to "stirrer.eMesh" (135 points, 155 edges).
    level 1 for all cells within 0 metre.
Read edgeMesh stirrerholder.eMesh
    points      : 74
    edges       : 74
    boundingBox : (-0.00199413 -0.00199883 0.007) (0.00199993 0.00199743 0.052)

Refinement level according to distance to "stirrerholder.eMesh" (74 points, 74 edges).
    level 1 for all cells within 0 metre.
Read edgeMesh RF.eMesh
    points      : 200
    edges       : 200
    boundingBox : (-0.00799781 -0.00799781 -0.00408917) (0.00799781 0.00799781 0.00591083)

Refinement level according to distance to "RF.eMesh" (200 points, 200 edges).
    level 1 for all cells within 0 metre.
Read edgeMesh bottom.eMesh
    points      : 205
    edges       : 205
    boundingBox : (-0.0149945 -0.0149945 0) (0.0149945 0.0149945 2.25514e-17)

Refinement level according to distance to "bottom.eMesh" (205 points, 205 edges).
    level 1 for all cells within 0 metre.
Read features in = 0.01 s


Determining initial surface intersections
-----------------------------------------

Edge intersection testing:
    Number of edges             : 435700
    Number of edges to retest   : 435700
    Number of intersected edges : 2478
Calculated surface intersections in = 0.52 s

Initial mesh : cells:142500  faces:435700  points:150858
Cells per refinement level:
    0	142500

Adding patches for surface regions
----------------------------------

Patch Type                Region                        
----- ----                ------                        
wall1:

1     wall                wall1                         

top:

2     symmetry            top                           

stirrer:

3     wall                stirrer                       

stirrerholder:

3     wall                stirrer                       

RF:

4     wall                RF                            
5     wall                RF_slave                      

bottom:

6     wall                bottom                        

Added patches in = 0.01 s

Selecting decompositionMethod none
Layer thickness specified as final layer and expansion ratio.

Refinement phase
----------------

Found point (0 0.01 0.005) in cell 21474 on processor 0

Feature refinement iteration 0
------------------------------

Marked for refinement due to explicit features             : 333 cells.
Determined cells to refine in = 0.91 s
Selected for feature refinement : 333 cells (out of 142500)
Edge intersection testing:
    Number of edges             : 444199
    Number of edges to retest   : 12984
    Number of intersected edges : 4542
Refined mesh in = 0.3 s
After refinement feature refinement iteration 0 : cells:144831  faces:444199  points:154873
Cells per refinement level:
    0	142167
    1	2664

Feature refinement iteration 1
------------------------------

Marked for refinement due to explicit features             : 0 cells.
Determined cells to refine in = 1.02 s
Selected for feature refinement : 0 cells (out of 144831)
Stopping refining since too few cells selected.


Surface refinement iteration 0
------------------------------

Marked for refinement due to surface intersection          : 687 cells.
Marked for refinement due to curvature/regions             : 2269 cells.
Determined cells to refine in = 0.02 s
Selected for refinement : 2978 cells (out of 144831)
Edge intersection testing:
    Number of edges             : 511642
    Number of edges to retest   : 92121
    Number of intersected edges : 14472
Refined mesh in = 0.48 s
After refinement surface refinement iteration 0 : cells:165677  faces:511642  points:180598
Cells per refinement level:
    0	139480
    1	23869
    2	2328

Surface refinement iteration 1
------------------------------

Marked for refinement due to surface intersection          : 0 cells.
Marked for refinement due to curvature/regions             : 56 cells.
Determined cells to refine in = 0.05 s
Selected for refinement : 68 cells (out of 165677)
Edge intersection testing:
    Number of edges             : 513226
    Number of edges to retest   : 4636
    Number of intersected edges : 14672
Refined mesh in = 0.32 s
After refinement surface refinement iteration 1 : cells:166153  faces:513226  points:181226
Cells per refinement level:
    0	139468
    1	23909
    2	2776

Surface refinement iteration 2
------------------------------

Marked for refinement due to surface intersection          : 0 cells.
Marked for refinement due to curvature/regions             : 0 cells.
Determined cells to refine in = 0.07 s
Selected for refinement : 0 cells (out of 166153)
Stopping refining since too few cells selected.


Removing mesh beyond surface intersections
------------------------------------------

Found point (0 0.01 0.005) in global region 3 out of 52 regions.
Keeping all cells in region 3 containing point (0 0.01 0.005)
Selected for keeping : 24712 cells.
Edge intersection testing:
    Number of edges             : 82258
    Number of edges to retest   : 8606
    Number of intersected edges : 14672

Shell refinement iteration 0
----------------------------

Marked for refinement due to distance to explicit features : 0 cells.
Marked for refinement due to refinement shells             : 0 cells.
Determined cells to refine in = 2 s
Selected for internal refinement : 344 cells (out of 24712)
Edge intersection testing:
    Number of edges             : 90298
    Number of edges to retest   : 21743
    Number of intersected edges : 15628
Refined mesh in = 0.07 s
After refinement shell refinement iteration 0 : cells:27120  faces:90298  points:36222
Cells per refinement level:
    0	1647
    1	20306
    2	5167

Shell refinement iteration 1
----------------------------

Marked for refinement due to distance to explicit features : 0 cells.
Marked for refinement due to refinement shells             : 0 cells.
Determined cells to refine in = 0.02 s
Selected for internal refinement : 0 cells (out of 27120)
Stopping refining since too few cells selected.


Dangling coarse cells refinement iteration 0
--------------------------------------------

Determined cells to refine in = 0 s
Selected for refinement : 10 cells (out of 27120)
Edge intersection testing:
    Number of edges             : 90448
    Number of edges to retest   : 1338
    Number of intersected edges : 15628
Refined mesh in = 0.06 s
After refinement coarse cell refinement iteration 0 : cells:27190  faces:90448  points:36242
Cells per refinement level:
    0	1637
    1	20386
    2	5167

Dangling coarse cells refinement iteration 1
--------------------------------------------

Determined cells to refine in = 0 s
Selected for refinement : 0 cells (out of 27190)
Stopping refining since too few cells selected.


Dangling coarse cells refinement iteration 0
--------------------------------------------

Determined cells to refine in = 0 s
Selected for refinement : 5 cells (out of 27190)
Edge intersection testing:
    Number of edges             : 90508
    Number of edges to retest   : 750
    Number of intersected edges : 15628
Refined mesh in = 0.06 s
After refinement coarse cell refinement iteration 0 : cells:27225  faces:90508  points:36247
Cells per refinement level:
    0	1632
    1	20426
    2	5167

Dangling coarse cells refinement iteration 1
--------------------------------------------

Determined cells to refine in = 0 s
Selected for refinement : 0 cells (out of 27225)
Stopping refining since too few cells selected.


Splitting mesh at surface intersections
---------------------------------------

Introducing baffles for 15628 faces that are intersected by the surface.

Edge intersection testing:
    Number of edges             : 103272
    Number of edges to retest   : 65815
    Number of intersected edges : 26418
Created baffles in = 0.13 s


After introducing baffles : cells:27225  faces:103272  points:36247
Cells per refinement level:
    0	1632
    1	20426
    2	5167

Introducing baffles to block off problem cells
----------------------------------------------

--> FOAM Warning : 
    From function Foam::labelList Foam::meshRefinement::nearestPatch(const labelList&) const
    in file meshRefinement/meshRefinementProblemCells.C at line 440
    Did not visit some faces, e.g. face 27382 at (-0.003 -0.0145 0.0567982)
Assigning  these cells to patch 1
markFacesOnProblemCells : marked 11333 additional internal faces to be converted into baffles.
Analyzed problem cells in = 0.05 s


Introducing baffles to delete problem cells.

Edge intersection testing:
    Number of edges             : 114605
    Number of edges to retest   : 44481
    Number of intersected edges : 26424
Created baffles in = 0.11 s


After introducing baffles : cells:27225  faces:114605  points:36247
Cells per refinement level:
    0	1632
    1	20426
    2	5167

Remove unreachable sections of mesh
-----------------------------------

Keeping all cells in region 108 containing point (0 0.01 0.005)
Selected for keeping : 17002 cells.
Edge intersection testing:
    Number of edges             : 58684
    Number of edges to retest   : 0
    Number of intersected edges : 8784
Split mesh in = 0.26 s


After subsetting : cells:17002  faces:58684  points:24829
Cells per refinement level:
    0	1632
    1	10436
    2	4934

Introducing zones for interfaces
--------------------------------

Surface : RF
    faceZone : rotating
    cellZone : MRF1
Found 1 named surfaces with a provided inside point. Assigning cells inside these surfaces to the corresponding cellZone.

For surface RF finding inside point (0.005 0 0)
For surface RF found point (0.005 0 0) in global region 1 out of 2 regions.
Walking from location-in-mesh (0 0.01 0.005) to assign cellZones - crossing a faceZone face changes cellZone

Found point (0 0.01 0.005) in global region 0 out of 2 regions.
CellZones:
    MRF1	size:3113

FaceZones:
    rotating	size:2805

Edge intersection testing:
    Number of edges             : 58684
    Number of edges to retest   : 0
    Number of intersected edges : 8784

Handling cells with snap problems
---------------------------------

Introducing baffles for 8784 faces that are intersected by the surface.

Edge intersection testing:
    Number of edges             : 58684
    Number of edges to retest   : 19427
    Number of intersected edges : 8784
Created baffles in = 0.28 s


After introducing baffles : cells:17002  faces:58684  points:24829
Cells per refinement level:
    0	1632
    1	10436
    2	4934

Introducing baffles to block off problem cells
----------------------------------------------

markFacesOnProblemCells : marked 0 additional internal faces to be converted into baffles.
Analyzed problem cells in = 0.03 s


Introducing baffles to delete problem cells.

Edge intersection testing:
    Number of edges             : 58684
    Number of edges to retest   : 0
    Number of intersected edges : 8784
Created baffles in = 0.03 s


After introducing baffles : cells:17002  faces:58684  points:24829
Cells per refinement level:
    0	1632
    1	10436
    2	4934

Remove unreachable sections of mesh
-----------------------------------

Keeping all cells in region 0 containing point (0 0.01 0.005)
Selected for keeping : 17002 cells.
Edge intersection testing:
    Number of edges             : 58684
    Number of edges to retest   : 0
    Number of intersected edges : 8784
Split mesh in = 0.18 s


After subsetting : cells:17002  faces:58684  points:24829
Cells per refinement level:
    0	1632
    1	10436
    2	4934

Merge free-standing baffles
---------------------------

freeStandingBaffles : detected 8 free-standing baffles out of 8

freeStandingBaffles : detected 0 planar (within 30 degrees) free-standing baffles out of 8

Detected free-standing baffles : 0
Merged free-standing baffles in = 0.01 s


dupNonManifoldPoints : Found : 11 non-manifold points (out of 24829)
Edge intersection testing:
    Number of edges             : 58684
    Number of edges to retest   : 0
    Number of intersected edges : 8784
Detected unsplittable baffles : 0

Merge refined boundary faces
----------------------------

Merging 49 sets of faces.

Edge intersection testing:
    Number of edges             : 58615
    Number of edges to retest   : 496
    Number of intersected edges : 8717

Undo iteration 0
----------------
Checking faces in error :
    non-orthogonality > 65  degrees                        : 0
    faces with face pyramid volume < 1e-13                 : 0
    faces with face-decomposition tet quality < -1e-30      : 0
    faces with concavity > 80  degrees                     : 0
    faces with skewness > 4   (internal) or 20  (boundary) : 0
    faces with interpolation weights (0..1)  < 0.05        : 0
    faces with volume ratio of neighbour cells < 0.01      : 0
    faces with face twist < 0.05                           : 0
    faces on cells with determinant < 0.001                : 0

Merging all points on surface that
- are used by only two boundary faces and
- make an angle with a cosine of more than 0.707107.

Removing 60 straight edge points ...

Edge intersection testing:
    Number of edges             : 58615
    Number of edges to retest   : 596
    Number of intersected edges : 8717

Undo iteration 0
----------------
Checking faces in error :
    non-orthogonality > 65  degrees                        : 0
    faces with face pyramid volume < 1e-13                 : 0
    faces with face-decomposition tet quality < -1e-30      : 0
    faces with concavity > 80  degrees                     : 0
    faces with skewness > 4   (internal) or 20  (boundary) : 0
    faces with interpolation weights (0..1)  < 0.05        : 0
    faces with volume ratio of neighbour cells < 0.01      : 0
    faces with face twist < 0.05                           : 0
    faces on cells with determinant < 0.001                : 0
Refined mesh : cells:17002  faces:58615  points:24770
Cells per refinement level:
    0	1632
    1	10436
    2	4934
Writing mesh to time constant
Wrote mesh in = 0.29 s.
Mesh refined in = 6.75 s.

Morphing phase
--------------

Converting zoned faces into baffles ...
For zone rotating found patches RF and RF_slave
Edge intersection testing:
    Number of edges             : 61420
    Number of edges to retest   : 17834
    Number of intersected edges : 11190
Created 2805 baffles in = 0.07 s



Snapping to features in 15 iterations ...
Constructing mesh displacer ...
Using mesh parameters 
{
    maxNonOrtho     65;
    maxBoundarySkewness 20;
    maxInternalSkewness 4;
    maxConcave      80;
    minVol          1e-13;
    minTetQuality   -1e-30;
    minArea         -1;
    minTwist        0.05;
    minDeterminant  0.001;
    minFaceWeight   0.05;
    minVolRatio     0.01;
    minTriangleTwist -1;
    nSmoothScale    4;
    errorReduction  0.75;
    relaxed
    {
        maxNonOrtho     75;
    }
}


Checking initial mesh ...
Checking faces in error :
    non-orthogonality > 65  degrees                        : 0
    faces with face pyramid volume < 1e-13                 : 0
    faces with face-decomposition tet quality < -1e-30      : 0
    faces with concavity > 80  degrees                     : 0
    faces with skewness > 4   (internal) or 20  (boundary) : 0
    faces with interpolation weights (0..1)  < 0.05        : 0
    faces with volume ratio of neighbour cells < 0.01      : 0
    faces with face twist < 0.05                           : 0
    faces on cells with determinant < 0.001                : 0
Detected 0 illegal faces (concave, zero area or negative cell pyramid volume)
Checked initial mesh in = 0.06 s


Smoothing patch points ...
Smoothing iteration 0
Found 14 non-manifold point(s).

Scaling iteration 0
Moving mesh using displacement scaling : min:1  max:1
Checking faces in error :
    non-orthogonality > 65  degrees                        : 0
    faces with face pyramid volume < 1e-13                 : 0
    faces with face-decomposition tet quality < -1e-30      : 0
    faces with concavity > 80  degrees                     : 0
    faces with skewness > 4   (internal) or 20  (boundary) : 0
    faces with interpolation weights (0..1)  < 0.05        : 0
    faces with volume ratio of neighbour cells < 0.01      : 0
    faces with face twist < 0.05                           : 0
    faces on cells with determinant < 0.001                : 0
Successfully moved mesh

Smoothing iteration 1
Found 0 non-manifold point(s).

Scaling iteration 0
Moving mesh using displacement scaling : min:1  max:1
Checking faces in error :
    non-orthogonality > 65  degrees                        : 0
    faces with face pyramid volume < 1e-13                 : 0
    faces with face-decomposition tet quality < -1e-30      : 0
    faces with concavity > 80  degrees                     : 0
    faces with skewness > 4   (internal) or 20  (boundary) : 0
    faces with interpolation weights (0..1)  < 0.05        : 0
    faces with volume ratio of neighbour cells < 0.01      : 0
    faces with face twist < 0.05                           : 0
    faces on cells with determinant < 0.001                : 0
Successfully moved mesh

Smoothing iteration 2
Found 0 non-manifold point(s).

Scaling iteration 0
Moving mesh using displacement scaling : min:1  max:1
Checking faces in error :
    non-orthogonality > 65  degrees                        : 0
    faces with face pyramid volume < 1e-13                 : 0
    faces with face-decomposition tet quality < -1e-30      : 0
    faces with concavity > 80  degrees                     : 0
    faces with skewness > 4   (internal) or 20  (boundary) : 0
    faces with interpolation weights (0..1)  < 0.05        : 0
    faces with volume ratio of neighbour cells < 0.01      : 0
    faces with face twist < 0.05                           : 0
    faces on cells with determinant < 0.001                : 0
Successfully moved mesh

Patch points smoothed in = 0.23 s



Morph iteration 0
-----------------
Calculating patchDisplacement as distance to nearest surface point ...
Wanted displacement : average:0.000195296 min:3.49534e-08 max:0.000624771
Calculated surface displacement in = 0.03 s


Detecting near surfaces ...
Overriding nearest with intersection of close gaps at 1946 out of 9141 points.
Overriding displacement on features :
   implicit features    : false
   explicit features    : true
   multi-patch features : false

Detected 11 baffle edges out of 17973 edges.
Initially selected 806 points out of 9141 for reverse attraction.
Selected 2139 points out of 9141 for reverse attraction.
Stringing feature edges : changed 28 points
Stringing feature edges : changed 0 points
Attraction:
     linear   : max:(1.89722e-05 0.000624483 0) avg:(-4.12327e-07 1.09064e-07 -1.26266e-05)
     feature  : max:(-0.000504873 0.000434254 0.000528786) avg:(-4.21764e-07 5.41692e-07 1.16998e-05)
Feature analysis : total master points:9141 attraction to :
    feature point   : 21
    feature edge    : 597
    nearest surface : 0
    rest            : 8523

--> FOAM Warning : Displacement (-1.40323e-06 6.7632e-07 -1.70312e-06) at mesh point 4979 coord (0.00453102 -0.0134998 2.55468e-05) points through the surrounding patch faces
Smoothing displacement ...
Iteration 0
Iteration 10
Iteration 20
Displacement smoothed in = 0.1 s


Moving mesh ...

Iteration 0
Moving mesh using displacement scaling : min:1  max:1
Checking faces in error :
    non-orthogonality > 65  degrees                        : 0
    faces with face pyramid volume < 1e-13                 : 0
    faces with face-decomposition tet quality < -1e-30      : 0
    faces with concavity > 80  degrees                     : 0
    faces with skewness > 4   (internal) or 20  (boundary) : 0
    faces with interpolation weights (0..1)  < 0.05        : 0
    faces with volume ratio of neighbour cells < 0.01      : 0
    faces with face twist < 0.05                           : 0
    faces on cells with determinant < 0.001                : 0
Successfully moved mesh
Moved mesh in = 0.06 s



Morph iteration 1
-----------------
Calculating patchDisplacement as distance to nearest surface point ...
Wanted displacement : average:0.000186033 min:6.00849e-08 max:0.000607923
Calculated surface displacement in = 0.03 s


Detecting near surfaces ...
Overriding nearest with intersection of close gaps at 1977 out of 9141 points.
Overriding displacement on features :
   implicit features    : false
   explicit features    : true
   multi-patch features : false

Detected 11 baffle edges out of 17973 edges.
Initially selected 806 points out of 9141 for reverse attraction.
Selected 2139 points out of 9141 for reverse attraction.
Stringing feature edges : changed 28 points
Stringing feature edges : changed 0 points
Attraction:
     linear   : max:(1.84606e-05 0.000607643 1.0842e-19) avg:(-3.55498e-07 8.03193e-08 -1.1528e-05)
     feature  : max:(-0.000497761 0.000436434 0.000526436) avg:(-3.78694e-07 5.27805e-07 1.16416e-05)
Feature analysis : total master points:9141 attraction to :
    feature point   : 21
    feature edge    : 597
    nearest surface : 0
    rest            : 8523

--> FOAM Warning : Displacement (-5.58431e-06 2.69451e-06 -3.17916e-06) at mesh point 4979 coord (0.00452962 -0.0134992 2.38437e-05) points through the surrounding patch faces
Smoothing displacement ...
Iteration 0
Iteration 10
Iteration 20
Displacement smoothed in = 0.08 s


Moving mesh ...

Iteration 0
Moving mesh using displacement scaling : min:1  max:1
Checking faces in error :
    non-orthogonality > 65  degrees                        : 0
    faces with face pyramid volume < 1e-13                 : 0
    faces with face-decomposition tet quality < -1e-30      : 0
    faces with concavity > 80  degrees                     : 0
    faces with skewness > 4   (internal) or 20  (boundary) : 0
    faces with interpolation weights (0..1)  < 0.05        : 0
    faces with volume ratio of neighbour cells < 0.01      : 0
    faces with face twist < 0.05                           : 0
    faces on cells with determinant < 0.001                : 0
Successfully moved mesh
Moved mesh in = 0.07 s



Morph iteration 2
-----------------
Calculating patchDisplacement as distance to nearest surface point ...
Wanted displacement : average:0.000168366 min:5.65228e-08 max:0.000572276
Calculated surface displacement in = 0.03 s


Detecting near surfaces ...
Overriding nearest with intersection of close gaps at 2470 out of 9141 points.
Overriding displacement on features :
   implicit features    : false
   explicit features    : true
   multi-patch features : false

Detected 11 baffle edges out of 17973 edges.
Initially selected 814 points out of 9141 for reverse attraction.
Selected 2142 points out of 9141 for reverse attraction.
Stringing feature edges : changed 24 points
Stringing feature edges : changed 0 points
Attraction:
     linear   : max:(1.73781e-05 0.000572012 0) avg:(-2.37137e-07 5.32422e-08 -9.80338e-06)
     feature  : max:(-0.000261965 -0.000392187 0.000706038) avg:(-5.85511e-07 4.50169e-07 1.1582e-05)
Feature analysis : total master points:9141 attraction to :
    feature point   : 21
    feature edge    : 605
    nearest surface : 0
    rest            : 8515

--> FOAM Warning : Displacement (-1.23272e-05 5.95971e-06 -4.13291e-06) at mesh point 4979 coord (0.00452403 -0.0134965 2.06646e-05) points through the surrounding patch faces
Smoothing displacement ...
Iteration 0
Iteration 10
Iteration 20
Displacement smoothed in = 0.08 s


Moving mesh ...

Iteration 0
Moving mesh using displacement scaling : min:1  max:1
Checking faces in error :
    non-orthogonality > 65  degrees                        : 0
    faces with face pyramid volume < 1e-13                 : 0
    faces with face-decomposition tet quality < -1e-30      : 1
    faces with concavity > 80  degrees                     : 0
    faces with skewness > 4   (internal) or 20  (boundary) : 0
    faces with interpolation weights (0..1)  < 0.05        : 0
    faces with volume ratio of neighbour cells < 0.01      : 0
    faces with face twist < 0.05                           : 0
    faces on cells with determinant < 0.001                : 0

Iteration 1
Moving mesh using displacement scaling : min:0.75  max:1
Checking faces in error :
    non-orthogonality > 65  degrees                        : 0
    faces with face pyramid volume < 1e-13                 : 0
    faces with face-decomposition tet quality < -1e-30      : 0
    faces with concavity > 80  degrees                     : 0
    faces with skewness > 4   (internal) or 20  (boundary) : 0
    faces with interpolation weights (0..1)  < 0.05        : 0
    faces with volume ratio of neighbour cells < 0.01      : 0
    faces with face twist < 0.05                           : 0
    faces on cells with determinant < 0.001                : 0
Successfully moved mesh
Moved mesh in = 0.1 s



Morph iteration 3
-----------------
Calculating patchDisplacement as distance to nearest surface point ...
Wanted displacement : average:0.000145138 min:7.45158e-09 max:0.000550859
Calculated surface displacement in = 0.02 s


Detecting near surfaces ...
Overriding nearest with intersection of close gaps at 2819 out of 9141 points.
Overriding displacement on features :
   implicit features    : false
   explicit features    : true
   multi-patch features : false

Detected 11 baffle edges out of 17973 edges.
Initially selected 818 points out of 9141 for reverse attraction.
Selected 2144 points out of 9141 for reverse attraction.
Stringing feature edges : changed 26 points
Stringing feature edges : changed 0 points
Attraction:
     linear   : max:(1.51788e-17 -1.17094e-17 0.000550859) avg:(-1.36661e-07 1.03649e-07 -7.9155e-06)
     feature  : max:(0.000439494 -0.000460178 0.000496478) avg:(-6.26103e-07 4.66252e-07 1.13216e-05)
Feature analysis : total master points:9141 attraction to :
    feature point   : 21
    feature edge    : 609
    nearest surface : 0
    rest            : 8511

--> FOAM Warning : Displacement (-2.10079e-05 1.01817e-05 -4.40844e-06) at mesh point 4979 coord (0.0045117 -0.0134905 1.65316e-05) points through the surrounding patch faces
Smoothing displacement ...
Iteration 0
Iteration 10
Iteration 20
Displacement smoothed in = 0.08 s


Moving mesh ...

Iteration 0
Moving mesh using displacement scaling : min:1  max:1
Checking faces in error :
    non-orthogonality > 65  degrees                        : 0
    faces with face pyramid volume < 1e-13                 : 0
    faces with face-decomposition tet quality < -1e-30      : 0
    faces with concavity > 80  degrees                     : 0
    faces with skewness > 4   (internal) or 20  (boundary) : 0
    faces with interpolation weights (0..1)  < 0.05        : 0
    faces with volume ratio of neighbour cells < 0.01      : 0
    faces with face twist < 0.05                           : 0
    faces on cells with determinant < 0.001                : 0
Successfully moved mesh
Moved mesh in = 0.08 s



Morph iteration 4
-----------------
Calculating patchDisplacement as distance to nearest surface point ...
Wanted displacement : average:0.000119358 min:2.70802e-08 max:0.000546945
Calculated surface displacement in = 0.01 s


Detecting near surfaces ...
Overriding nearest with intersection of close gaps at 3372 out of 9141 points.
Overriding displacement on features :
   implicit features    : false
   explicit features    : true
   multi-patch features : false

Detected 14 baffle edges out of 17973 edges.
Initially selected 802 points out of 9141 for reverse attraction.
Selected 2146 points out of 9141 for reverse attraction.
Stringing feature edges : changed 27 points
Stringing feature edges : changed 0 points
Attraction:
     linear   : max:(4.96565e-17 -2.86229e-17 0.000546945) avg:(2.89739e-08 -2.42292e-08 -6.4863e-06)
     feature  : max:(0.000418842 -0.00041987 0.000461173) avg:(-5.54073e-07 4.59455e-07 1.07469e-05)
Feature analysis : total master points:9141 attraction to :
    feature point   : 21
    feature edge    : 612
    nearest surface : 0
    rest            : 8508

--> FOAM Warning : Displacement (-3.04414e-05 1.47945e-05 -4.04107e-06) at mesh point 4979 coord (0.0044907 -0.0134803 1.21232e-05) points through the surrounding patch faces
Smoothing displacement ...
Iteration 0
Iteration 10
Iteration 20
Displacement smoothed in = 0.1 s


Moving mesh ...

Iteration 0
Moving mesh using displacement scaling : min:1  max:1
Checking faces in error :
    non-orthogonality > 65  degrees                        : 0
    faces with face pyramid volume < 1e-13                 : 0
    faces with face-decomposition tet quality < -1e-30      : 1
    faces with concavity > 80  degrees                     : 0
    faces with skewness > 4   (internal) or 20  (boundary) : 0
    faces with interpolation weights (0..1)  < 0.05        : 0
    faces with volume ratio of neighbour cells < 0.01      : 0
    faces with face twist < 0.05                           : 0
    faces on cells with determinant < 0.001                : 0

Iteration 1
Moving mesh using displacement scaling : min:0.75  max:1
Checking faces in error :
    non-orthogonality > 65  degrees                        : 0
    faces with face pyramid volume < 1e-13                 : 0
    faces with face-decomposition tet quality < -1e-30      : 1
    faces with concavity > 80  degrees                     : 0
    faces with skewness > 4   (internal) or 20  (boundary) : 0
    faces with interpolation weights (0..1)  < 0.05        : 0
    faces with volume ratio of neighbour cells < 0.01      : 0
    faces with face twist < 0.05                           : 0
    faces on cells with determinant < 0.001                : 0

Iteration 2
Moving mesh using displacement scaling : min:0.5625  max:1
Checking faces in error :
    non-orthogonality > 65  degrees                        : 0
    faces with face pyramid volume < 1e-13                 : 0
    faces with face-decomposition tet quality < -1e-30      : 0
    faces with concavity > 80  degrees                     : 0
    faces with skewness > 4   (internal) or 20  (boundary) : 0
    faces with interpolation weights (0..1)  < 0.05        : 0
    faces with volume ratio of neighbour cells < 0.01      : 0
    faces with face twist < 0.05                           : 0
    faces on cells with determinant < 0.001                : 0
Successfully moved mesh
Moved mesh in = 0.12 s



Morph iteration 5
-----------------
Calculating patchDisplacement as distance to nearest surface point ...
Wanted displacement : average:9.57167e-05 min:3.99833e-10 max:0.000543318
Calculated surface displacement in = 0.03 s


Detecting near surfaces ...
Overriding nearest with intersection of close gaps at 4169 out of 9141 points.
Overriding displacement on features :
   implicit features    : false
   explicit features    : true
   multi-patch features : false

Detected 15 baffle edges out of 17973 edges.
Initially selected 799 points out of 9141 for reverse attraction.
Selected 2146 points out of 9141 for reverse attraction.
Stringing feature edges : changed 19 points
Stringing feature edges : changed 0 points
Attraction:
     linear   : max:(-7.76289e-17 5.85469e-17 0.000543318) avg:(1.56084e-07 8.21579e-08 -4.63301e-06)
     feature  : max:(0.000382685 -0.000368488 0.000409931) avg:(-4.20037e-07 3.89827e-07 1.01642e-05)
Feature analysis : total master points:9141 attraction to :
    feature point   : 19
    feature edge    : 613
    nearest surface : 0
    rest            : 8509

--> FOAM Warning : Displacement (-3.8889e-05 1.89631e-05 -3.23285e-06) at mesh point 4979 coord (0.00446025 -0.0134655 8.08214e-06) points through the surrounding patch faces
Smoothing displacement ...
Iteration 0
Iteration 10
Iteration 20
Displacement smoothed in = 0.07 s


Moving mesh ...

Iteration 0
Moving mesh using displacement scaling : min:1  max:1
Checking faces in error :
    non-orthogonality > 65  degrees                        : 0
    faces with face pyramid volume < 1e-13                 : 0
    faces with face-decomposition tet quality < -1e-30      : 2
    faces with concavity > 80  degrees                     : 0
    faces with skewness > 4   (internal) or 20  (boundary) : 0
    faces with interpolation weights (0..1)  < 0.05        : 0
    faces with volume ratio of neighbour cells < 0.01      : 0
    faces with face twist < 0.05                           : 0
    faces on cells with determinant < 0.001                : 0

Iteration 1
Moving mesh using displacement scaling : min:0.75  max:1
Checking faces in error :
    non-orthogonality > 65  degrees                        : 0
    faces with face pyramid volume < 1e-13                 : 0
    faces with face-decomposition tet quality < -1e-30      : 2
    faces with concavity > 80  degrees                     : 0
    faces with skewness > 4   (internal) or 20  (boundary) : 0
    faces with interpolation weights (0..1)  < 0.05        : 0
    faces with volume ratio of neighbour cells < 0.01      : 0
    faces with face twist < 0.05                           : 0
    faces on cells with determinant < 0.001                : 0

Iteration 2
Moving mesh using displacement scaling : min:0.5625  max:1
Checking faces in error :
    non-orthogonality > 65  degrees                        : 0
    faces with face pyramid volume < 1e-13                 : 0
    faces with face-decomposition tet quality < -1e-30      : 1
    faces with concavity > 80  degrees                     : 0
    faces with skewness > 4   (internal) or 20  (boundary) : 0
    faces with interpolation weights (0..1)  < 0.05        : 0
    faces with volume ratio of neighbour cells < 0.01      : 0
    faces with face twist < 0.05                           : 0
    faces on cells with determinant < 0.001                : 0

Iteration 3
Moving mesh using displacement scaling : min:0.421875  max:1
Checking faces in error :
    non-orthogonality > 65  degrees                        : 0
    faces with face pyramid volume < 1e-13                 : 0
    faces with face-decomposition tet quality < -1e-30      : 1
    faces with concavity > 80  degrees                     : 0
    faces with skewness > 4   (internal) or 20  (boundary) : 0
    faces with interpolation weights (0..1)  < 0.05        : 0
    faces with volume ratio of neighbour cells < 0.01      : 0
    faces with face twist < 0.05                           : 0
    faces on cells with determinant < 0.001                : 0

Iteration 4
Moving mesh using displacement scaling : min:0.316406  max:1
Checking faces in error :
    non-orthogonality > 65  degrees                        : 0
    faces with face pyramid volume < 1e-13                 : 0
    faces with face-decomposition tet quality < -1e-30      : 1
    faces with concavity > 80  degrees                     : 0
    faces with skewness > 4   (internal) or 20  (boundary) : 0
    faces with interpolation weights (0..1)  < 0.05        : 0
    faces with volume ratio of neighbour cells < 0.01      : 0
    faces with face twist < 0.05                           : 0
    faces on cells with determinant < 0.001                : 0

Iteration 5
Displacement scaling for error reduction set to 0.
Moving mesh using displacement scaling : min:0.237305  max:1
Checking faces in error :
    non-orthogonality > 65  degrees                        : 0
    faces with face pyramid volume < 1e-13                 : 0
    faces with face-decomposition tet quality < -1e-30      : 1
    faces with concavity > 80  degrees                     : 0
    faces with skewness > 4   (internal) or 20  (boundary) : 0
    faces with interpolation weights (0..1)  < 0.05        : 0
    faces with volume ratio of neighbour cells < 0.01      : 0
    faces with face twist < 0.05                           : 0
    faces on cells with determinant < 0.001                : 0

Iteration 6
Moving mesh using displacement scaling : min:0  max:1
Checking faces in error :
    non-orthogonality > 65  degrees                        : 0
    faces with face pyramid volume < 1e-13                 : 0
    faces with face-decomposition tet quality < -1e-30      : 0
    faces with concavity > 80  degrees                     : 0
    faces with skewness > 4   (internal) or 20  (boundary) : 0
    faces with interpolation weights (0..1)  < 0.05        : 0
    faces with volume ratio of neighbour cells < 0.01      : 0
    faces with face twist < 0.05                           : 0
    faces on cells with determinant < 0.001                : 0
Successfully moved mesh
Moved mesh in = 0.31 s



Morph iteration 6
-----------------
Calculating patchDisplacement as distance to nearest surface point ...
Wanted displacement : average:7.42605e-05 min:2.89788e-08 max:0.000539504
Calculated surface displacement in = 0.01 s


Detecting near surfaces ...
Overriding nearest with intersection of close gaps at 4216 out of 9141 points.
Overriding displacement on features :
   implicit features    : false
   explicit features    : true
   multi-patch features : false

Detected 20 baffle edges out of 17973 edges.
Initially selected 799 points out of 9141 for reverse attraction.
Selected 2163 points out of 9141 for reverse attraction.
Stringing feature edges : changed 31 points
Stringing feature edges : changed 4 points
Stringing feature edges : changed 2 points
Stringing feature edges : changed 2 points
Stringing feature edges : changed 1 points
Stringing feature edges : changed 0 points
Attraction:
     linear   : max:(-1.40946e-16 1.01915e-16 0.000539504) avg:(2.97192e-07 6.17556e-08 -3.81269e-06)
     feature  : max:(0.000159776 -0.000494404 -0.000549728) avg:(-2.8579e-07 4.57509e-07 8.06251e-06)
Feature analysis : total master points:9141 attraction to :
    feature point   : 22
    feature edge    : 634
    nearest surface : 0
    rest            : 8485

--> FOAM Warning : Displacement (1.2229e-06 1.62296e-06 7.34096e-06) at mesh point 8454 coord (0.00865644 -0.0116689 0.00387767) points through the surrounding patch faces
Smoothing displacement ...
Iteration 0
Iteration 10
Iteration 20
Displacement smoothed in = 0.1 s


Moving mesh ...

Iteration 0
Moving mesh using displacement scaling : min:1  max:1
Checking faces in error :
    non-orthogonality > 65  degrees                        : 0
    faces with face pyramid volume < 1e-13                 : 0
    faces with face-decomposition tet quality < -1e-30      : 2
    faces with concavity > 80  degrees                     : 0
    faces with skewness > 4   (internal) or 20  (boundary) : 0
    faces with interpolation weights (0..1)  < 0.05        : 0
    faces with volume ratio of neighbour cells < 0.01      : 0
    faces with face twist < 0.05                           : 1
    faces on cells with determinant < 0.001                : 0

Iteration 1
Moving mesh using displacement scaling : min:0.75  max:1
Checking faces in error :
    non-orthogonality > 65  degrees                        : 0
    faces with face pyramid volume < 1e-13                 : 0
    faces with face-decomposition tet quality < -1e-30      : 2
    faces with concavity > 80  degrees                     : 0
    faces with skewness > 4   (internal) or 20  (boundary) : 0
    faces with interpolation weights (0..1)  < 0.05        : 0
    faces with volume ratio of neighbour cells < 0.01      : 0
    faces with face twist < 0.05                           : 0
    faces on cells with determinant < 0.001                : 0

Iteration 2
Moving mesh using displacement scaling : min:0.5625  max:1
Checking faces in error :
    non-orthogonality > 65  degrees                        : 0
    faces with face pyramid volume < 1e-13                 : 0
    faces with face-decomposition tet quality < -1e-30      : 2
    faces with concavity > 80  degrees                     : 0
    faces with skewness > 4   (internal) or 20  (boundary) : 0
    faces with interpolation weights (0..1)  < 0.05        : 0
    faces with volume ratio of neighbour cells < 0.01      : 0
    faces with face twist < 0.05                           : 0
    faces on cells with determinant < 0.001                : 0

Iteration 3
Moving mesh using displacement scaling : min:0.421875  max:1
Checking faces in error :
    non-orthogonality > 65  degrees                        : 0
    faces with face pyramid volume < 1e-13                 : 0
    faces with face-decomposition tet quality < -1e-30      : 2
    faces with concavity > 80  degrees                     : 0
    faces with skewness > 4   (internal) or 20  (boundary) : 0
    faces with interpolation weights (0..1)  < 0.05        : 0
    faces with volume ratio of neighbour cells < 0.01      : 0
    faces with face twist < 0.05                           : 0
    faces on cells with determinant < 0.001                : 0

Iteration 4
Moving mesh using displacement scaling : min:0.316406  max:1
Checking faces in error :
    non-orthogonality > 65  degrees                        : 0
    faces with face pyramid volume < 1e-13                 : 0
    faces with face-decomposition tet quality < -1e-30      : 2
    faces with concavity > 80  degrees                     : 0
    faces with skewness > 4   (internal) or 20  (boundary) : 0
    faces with interpolation weights (0..1)  < 0.05        : 0
    faces with volume ratio of neighbour cells < 0.01      : 0
    faces with face twist < 0.05                           : 0
    faces on cells with determinant < 0.001                : 0

Iteration 5
Displacement scaling for error reduction set to 0.
Moving mesh using displacement scaling : min:0.237305  max:1
Checking faces in error :
    non-orthogonality > 65  degrees                        : 0
    faces with face pyramid volume < 1e-13                 : 0
    faces with face-decomposition tet quality < -1e-30      : 1
    faces with concavity > 80  degrees                     : 0
    faces with skewness > 4   (internal) or 20  (boundary) : 0
    faces with interpolation weights (0..1)  < 0.05        : 0
    faces with volume ratio of neighbour cells < 0.01      : 0
    faces with face twist < 0.05                           : 1
    faces on cells with determinant < 0.001                : 0

Iteration 6
Moving mesh using displacement scaling : min:0  max:1
Checking faces in error :
    non-orthogonality > 65  degrees                        : 0
    faces with face pyramid volume < 1e-13                 : 0
    faces with face-decomposition tet quality < -1e-30      : 0
    faces with concavity > 80  degrees                     : 0
    faces with skewness > 4   (internal) or 20  (boundary) : 0
    faces with interpolation weights (0..1)  < 0.05        : 0
    faces with volume ratio of neighbour cells < 0.01      : 0
    faces with face twist < 0.05                           : 0
    faces on cells with determinant < 0.001                : 0
Successfully moved mesh
Moved mesh in = 0.31 s



Morph iteration 7
-----------------
Calculating patchDisplacement as distance to nearest surface point ...
Wanted displacement : average:5.45861e-05 min:1.73172e-08 max:0.000536262
Calculated surface displacement in = 0.03 s


Detecting near surfaces ...
Overriding nearest with intersection of close gaps at 4334 out of 9141 points.
Overriding displacement on features :
   implicit features    : false
   explicit features    : true
   multi-patch features : false

Detected 23 baffle edges out of 17973 edges.
Initially selected 715 points out of 9141 for reverse attraction.
Selected 1914 points out of 9141 for reverse attraction.
Stringing feature edges : changed 20 points
Stringing feature edges : changed 2 points
Stringing feature edges : changed 0 points
Attraction:
     linear   : max:(-5.11743e-17 3.07913e-17 0.000536262) avg:(2.16633e-07 -1.0139e-07 -2.47049e-06)
     feature  : max:(-9.92193e-05 0.000376557 0.00235301) avg:(-2.6428e-07 1.96516e-07 1.72743e-05)
Feature analysis : total master points:9141 attraction to :
    feature point   : 25
    feature edge    : 609
    nearest surface : 0
    rest            : 8507

--> FOAM Warning : Displacement (2.55819e-05 -2.12967e-05 0.000121397) at mesh point 4099 coord (0.0106895 -0.00971647 0.00104828) points through the surrounding patch faces
Smoothing displacement ...
Iteration 0
Iteration 10
Iteration 20
Displacement smoothed in = 0.08 s


Moving mesh ...

Iteration 0
Moving mesh using displacement scaling : min:1  max:1
Checking faces in error :
    non-orthogonality > 65  degrees                        : 0
    faces with face pyramid volume < 1e-13                 : 0
    faces with face-decomposition tet quality < -1e-30      : 9
    faces with concavity > 80  degrees                     : 2
    faces with skewness > 4   (internal) or 20  (boundary) : 0
    faces with interpolation weights (0..1)  < 0.05        : 0
    faces with volume ratio of neighbour cells < 0.01      : 0
    faces with face twist < 0.05                           : 18
    faces on cells with determinant < 0.001                : 0

Iteration 1
Moving mesh using displacement scaling : min:0.75  max:1
Checking faces in error :
    non-orthogonality > 65  degrees                        : 0
    faces with face pyramid volume < 1e-13                 : 0
    faces with face-decomposition tet quality < -1e-30      : 3
    faces with concavity > 80  degrees                     : 2
    faces with skewness > 4   (internal) or 20  (boundary) : 0
    faces with interpolation weights (0..1)  < 0.05        : 0
    faces with volume ratio of neighbour cells < 0.01      : 0
    faces with face twist < 0.05                           : 24
    faces on cells with determinant < 0.001                : 0

Iteration 2
Moving mesh using displacement scaling : min:0.5625  max:1
Checking faces in error :
    non-orthogonality > 65  degrees                        : 0
    faces with face pyramid volume < 1e-13                 : 0
    faces with face-decomposition tet quality < -1e-30      : 3
    faces with concavity > 80  degrees                     : 2
    faces with skewness > 4   (internal) or 20  (boundary) : 0
    faces with interpolation weights (0..1)  < 0.05        : 0
    faces with volume ratio of neighbour cells < 0.01      : 0
    faces with face twist < 0.05                           : 24
    faces on cells with determinant < 0.001                : 0

Iteration 3
Moving mesh using displacement scaling : min:0.421875  max:1
Checking faces in error :
    non-orthogonality > 65  degrees                        : 0
    faces with face pyramid volume < 1e-13                 : 0
    faces with face-decomposition tet quality < -1e-30      : 3
    faces with concavity > 80  degrees                     : 1
    faces with skewness > 4   (internal) or 20  (boundary) : 0
    faces with interpolation weights (0..1)  < 0.05        : 0
    faces with volume ratio of neighbour cells < 0.01      : 0
    faces with face twist < 0.05                           : 24
    faces on cells with determinant < 0.001                : 0

Iteration 4
Moving mesh using displacement scaling : min:0.316406  max:1
Checking faces in error :
    non-orthogonality > 65  degrees                        : 0
    faces with face pyramid volume < 1e-13                 : 0
    faces with face-decomposition tet quality < -1e-30      : 3
    faces with concavity > 80  degrees                     : 0
    faces with skewness > 4   (internal) or 20  (boundary) : 0
    faces with interpolation weights (0..1)  < 0.05        : 0
    faces with volume ratio of neighbour cells < 0.01      : 0
    faces with face twist < 0.05                           : 21
    faces on cells with determinant < 0.001                : 0

Iteration 5
Displacement scaling for error reduction set to 0.
Moving mesh using displacement scaling : min:0.237305  max:1
Checking faces in error :
    non-orthogonality > 65  degrees                        : 0
    faces with face pyramid volume < 1e-13                 : 0
    faces with face-decomposition tet quality < -1e-30      : 2
    faces with concavity > 80  degrees                     : 0
    faces with skewness > 4   (internal) or 20  (boundary) : 0
    faces with interpolation weights (0..1)  < 0.05        : 0
    faces with volume ratio of neighbour cells < 0.01      : 0
    faces with face twist < 0.05                           : 19
    faces on cells with determinant < 0.001                : 0

Iteration 6
Moving mesh using displacement scaling : min:0  max:1
Checking faces in error :
    non-orthogonality > 65  degrees                        : 0
    faces with face pyramid volume < 1e-13                 : 0
    faces with face-decomposition tet quality < -1e-30      : 0
    faces with concavity > 80  degrees                     : 1
    faces with skewness > 4   (internal) or 20  (boundary) : 0
    faces with interpolation weights (0..1)  < 0.05        : 0
    faces with volume ratio of neighbour cells < 0.01      : 0
    faces with face twist < 0.05                           : 0
    faces on cells with determinant < 0.001                : 0

Iteration 7
Moving mesh using displacement scaling : min:0  max:1
Checking faces in error :
    non-orthogonality > 65  degrees                        : 0
    faces with face pyramid volume < 1e-13                 : 0
    faces with face-decomposition tet quality < -1e-30      : 0
    faces with concavity > 80  degrees                     : 0
    faces with skewness > 4   (internal) or 20  (boundary) : 0
    faces with interpolation weights (0..1)  < 0.05        : 0
    faces with volume ratio of neighbour cells < 0.01      : 0
    faces with face twist < 0.05                           : 0
    faces on cells with determinant < 0.001                : 0
Successfully moved mesh
Moved mesh in = 0.5 s



Morph iteration 8
-----------------
Calculating patchDisplacement as distance to nearest surface point ...
Wanted displacement : average:3.99524e-05 min:5.25884e-08 max:0.000532497
Calculated surface displacement in = 0.01 s


Detecting near surfaces ...
Overriding nearest with intersection of close gaps at 4385 out of 9141 points.
Overriding displacement on features :
   implicit features    : false
   explicit features    : true
   multi-patch features : false

Detected 27 baffle edges out of 17973 edges.
Initially selected 707 points out of 9141 for reverse attraction.
Selected 1858 points out of 9141 for reverse attraction.
Stringing feature edges : changed 20 points
Stringing feature edges : changed 3 points
Stringing feature edges : changed 0 points
Attraction:
     linear   : max:(-4.14165e-17 3.03577e-18 0.000532497) avg:(1.02145e-07 -1.61607e-07 -3.5994e-06)
     feature  : max:(0.000361407 5.17916e-05 0.00231477) avg:(-9.78163e-08 3.02787e-07 1.87442e-05)
Feature analysis : total master points:9141 attraction to :
    feature point   : 25
    feature edge    : 620
    nearest surface : 0
    rest            : 8496

--> FOAM Warning : Displacement (-2.58967e-05 -3.79157e-05 0.000165557) at mesh point 310 coord (-0.00388771 -0.0138884 0.001037) points through the surrounding patch faces
Smoothing displacement ...
Iteration 0
Iteration 10
Iteration 20
Displacement smoothed in = 0.1 s


Moving mesh ...

Iteration 0
Moving mesh using displacement scaling : min:1  max:1
Checking faces in error :
    non-orthogonality > 65  degrees                        : 3
    faces with face pyramid volume < 1e-13                 : 0
    faces with face-decomposition tet quality < -1e-30      : 31
    faces with concavity > 80  degrees                     : 1
    faces with skewness > 4   (internal) or 20  (boundary) : 0
    faces with interpolation weights (0..1)  < 0.05        : 0
    faces with volume ratio of neighbour cells < 0.01      : 0
    faces with face twist < 0.05                           : 2
    faces on cells with determinant < 0.001                : 0

Iteration 1
Moving mesh using displacement scaling : min:0.75  max:1
Checking faces in error :
    non-orthogonality > 65  degrees                        : 1
    faces with face pyramid volume < 1e-13                 : 0
    faces with face-decomposition tet quality < -1e-30      : 10
    faces with concavity > 80  degrees                     : 0
    faces with skewness > 4   (internal) or 20  (boundary) : 0
    faces with interpolation weights (0..1)  < 0.05        : 0
    faces with volume ratio of neighbour cells < 0.01      : 0
    faces with face twist < 0.05                           : 18
    faces on cells with determinant < 0.001                : 0

Iteration 2
Moving mesh using displacement scaling : min:0.5625  max:1
Checking faces in error :
    non-orthogonality > 65  degrees                        : 1
    faces with face pyramid volume < 1e-13                 : 0
    faces with face-decomposition tet quality < -1e-30      : 4
    faces with concavity > 80  degrees                     : 0
    faces with skewness > 4   (internal) or 20  (boundary) : 0
    faces with interpolation weights (0..1)  < 0.05        : 0
    faces with volume ratio of neighbour cells < 0.01      : 0
    faces with face twist < 0.05                           : 24
    faces on cells with determinant < 0.001                : 0

Iteration 3
Moving mesh using displacement scaling : min:0.421875  max:1
Checking faces in error :
    non-orthogonality > 65  degrees                        : 1
    faces with face pyramid volume < 1e-13                 : 0
    faces with face-decomposition tet quality < -1e-30      : 2
    faces with concavity > 80  degrees                     : 0
    faces with skewness > 4   (internal) or 20  (boundary) : 0
    faces with interpolation weights (0..1)  < 0.05        : 0
    faces with volume ratio of neighbour cells < 0.01      : 0
    faces with face twist < 0.05                           : 24
    faces on cells with determinant < 0.001                : 0

Iteration 4
Moving mesh using displacement scaling : min:0.316406  max:1
Checking faces in error :
    non-orthogonality > 65  degrees                        : 1
    faces with face pyramid volume < 1e-13                 : 0
    faces with face-decomposition tet quality < -1e-30      : 2
    faces with concavity > 80  degrees                     : 0
    faces with skewness > 4   (internal) or 20  (boundary) : 0
    faces with interpolation weights (0..1)  < 0.05        : 0
    faces with volume ratio of neighbour cells < 0.01      : 0
    faces with face twist < 0.05                           : 24
    faces on cells with determinant < 0.001                : 0

Iteration 5
Displacement scaling for error reduction set to 0.
Moving mesh using displacement scaling : min:0.237305  max:1
Checking faces in error :
    non-orthogonality > 65  degrees                        : 1
    faces with face pyramid volume < 1e-13                 : 0
    faces with face-decomposition tet quality < -1e-30      : 2
    faces with concavity > 80  degrees                     : 0
    faces with skewness > 4   (internal) or 20  (boundary) : 0
    faces with interpolation weights (0..1)  < 0.05        : 0
    faces with volume ratio of neighbour cells < 0.01      : 0
    faces with face twist < 0.05                           : 24
    faces on cells with determinant < 0.001                : 0

Iteration 6
Moving mesh using displacement scaling : min:0  max:1
Checking faces in error :
    non-orthogonality > 65  degrees                        : 0
    faces with face pyramid volume < 1e-13                 : 0
    faces with face-decomposition tet quality < -1e-30      : 0
    faces with concavity > 80  degrees                     : 1
    faces with skewness > 4   (internal) or 20  (boundary) : 0
    faces with interpolation weights (0..1)  < 0.05        : 0
    faces with volume ratio of neighbour cells < 0.01      : 0
    faces with face twist < 0.05                           : 0
    faces on cells with determinant < 0.001                : 0

Iteration 7
Moving mesh using displacement scaling : min:0  max:1
Checking faces in error :
    non-orthogonality > 65  degrees                        : 0
    faces with face pyramid volume < 1e-13                 : 0
    faces with face-decomposition tet quality < -1e-30      : 0
    faces with concavity > 80  degrees                     : 0
    faces with skewness > 4   (internal) or 20  (boundary) : 0
    faces with interpolation weights (0..1)  < 0.05        : 0
    faces with volume ratio of neighbour cells < 0.01      : 0
    faces with face twist < 0.05                           : 0
    faces on cells with determinant < 0.001                : 0
Successfully moved mesh
Moved mesh in = 0.5 s



Morph iteration 9
-----------------
Calculating patchDisplacement as distance to nearest surface point ...
Wanted displacement : average:2.92255e-05 min:1.88574e-08 max:0.000528796
Calculated surface displacement in = 0.02 s


Detecting near surfaces ...
Overriding nearest with intersection of close gaps at 4248 out of 9141 points.
Overriding displacement on features :
   implicit features    : false
   explicit features    : true
   multi-patch features : false

Detected 33 baffle edges out of 17973 edges.
Initially selected 764 points out of 9141 for reverse attraction.
Selected 1996 points out of 9141 for reverse attraction.
Stringing feature edges : changed 18 points
Stringing feature edges : changed 3 points
Stringing feature edges : changed 0 points
Attraction:
     linear   : max:(-2.34838e-16 1.6263e-16 0.000528796) avg:(1.65108e-07 -2.54266e-07 -4.7e-06)
     feature  : max:(0.000287798 -2.10999e-06 0.00163203) avg:(-1.71684e-07 3.09991e-07 1.5833e-05)
Feature analysis : total master points:9141 attraction to :
    feature point   : 25
    feature edge    : 667
    nearest surface : 0
    rest            : 8449

--> FOAM Warning : Displacement (-3.03586e-05 -3.89293e-05 0.000155407) at mesh point 310 coord (-0.00388771 -0.0138884 0.001037) points through the surrounding patch faces
Smoothing displacement ...
Iteration 0
Iteration 10
Iteration 20
Displacement smoothed in = 0.08 s


Moving mesh ...

Iteration 0
Moving mesh using displacement scaling : min:1  max:1
Checking faces in error :
    non-orthogonality > 65  degrees                        : 20
    faces with face pyramid volume < 1e-13                 : 0
    faces with face-decomposition tet quality < -1e-30      : 35
    faces with concavity > 80  degrees                     : 2
    faces with skewness > 4   (internal) or 20  (boundary) : 0
    faces with interpolation weights (0..1)  < 0.05        : 0
    faces with volume ratio of neighbour cells < 0.01      : 0
    faces with face twist < 0.05                           : 0
    faces on cells with determinant < 0.001                : 0

Iteration 1
Moving mesh using displacement scaling : min:0.75  max:1
Checking faces in error :
    non-orthogonality > 65  degrees                        : 13
    faces with face pyramid volume < 1e-13                 : 0
    faces with face-decomposition tet quality < -1e-30      : 33
    faces with concavity > 80  degrees                     : 2
    faces with skewness > 4   (internal) or 20  (boundary) : 0
    faces with interpolation weights (0..1)  < 0.05        : 0
    faces with volume ratio of neighbour cells < 0.01      : 0
    faces with face twist < 0.05                           : 0
    faces on cells with determinant < 0.001                : 0

Iteration 2
Moving mesh using displacement scaling : min:0.5625  max:1
Checking faces in error :
    non-orthogonality > 65  degrees                        : 10
    faces with face pyramid volume < 1e-13                 : 0
    faces with face-decomposition tet quality < -1e-30      : 23
    faces with concavity > 80  degrees                     : 1
    faces with skewness > 4   (internal) or 20  (boundary) : 0
    faces with interpolation weights (0..1)  < 0.05        : 0
    faces with volume ratio of neighbour cells < 0.01      : 0
    faces with face twist < 0.05                           : 10
    faces on cells with determinant < 0.001                : 0

Iteration 3
Moving mesh using displacement scaling : min:0.421875  max:1
Checking faces in error :
    non-orthogonality > 65  degrees                        : 9
    faces with face pyramid volume < 1e-13                 : 0
    faces with face-decomposition tet quality < -1e-30      : 16
    faces with concavity > 80  degrees                     : 2
    faces with skewness > 4   (internal) or 20  (boundary) : 0
    faces with interpolation weights (0..1)  < 0.05        : 0
    faces with volume ratio of neighbour cells < 0.01      : 0
    faces with face twist < 0.05                           : 16
    faces on cells with determinant < 0.001                : 0

Iteration 4
Moving mesh using displacement scaling : min:0.316406  max:1
Checking faces in error :
    non-orthogonality > 65  degrees                        : 7
    faces with face pyramid volume < 1e-13                 : 0
    faces with face-decomposition tet quality < -1e-30      : 13
    faces with concavity > 80  degrees                     : 1
    faces with skewness > 4   (internal) or 20  (boundary) : 0
    faces with interpolation weights (0..1)  < 0.05        : 0
    faces with volume ratio of neighbour cells < 0.01      : 0
    faces with face twist < 0.05                           : 18
    faces on cells with determinant < 0.001                : 0

Iteration 5
Displacement scaling for error reduction set to 0.
Moving mesh using displacement scaling : min:0.237305  max:1
Checking faces in error :
    non-orthogonality > 65  degrees                        : 6
    faces with face pyramid volume < 1e-13                 : 0
    faces with face-decomposition tet quality < -1e-30      : 3
    faces with concavity > 80  degrees                     : 0
    faces with skewness > 4   (internal) or 20  (boundary) : 0
    faces with interpolation weights (0..1)  < 0.05        : 0
    faces with volume ratio of neighbour cells < 0.01      : 0
    faces with face twist < 0.05                           : 24
    faces on cells with determinant < 0.001                : 0

Iteration 6
Moving mesh using displacement scaling : min:0  max:1
Checking faces in error :
    non-orthogonality > 65  degrees                        : 0
    faces with face pyramid volume < 1e-13                 : 0
    faces with face-decomposition tet quality < -1e-30      : 0
    faces with concavity > 80  degrees                     : 1
    faces with skewness > 4   (internal) or 20  (boundary) : 0
    faces with interpolation weights (0..1)  < 0.05        : 0
    faces with volume ratio of neighbour cells < 0.01      : 0
    faces with face twist < 0.05                           : 0
    faces on cells with determinant < 0.001                : 0

Iteration 7
Moving mesh using displacement scaling : min:0  max:1
Checking faces in error :
    non-orthogonality > 65  degrees                        : 0
    faces with face pyramid volume < 1e-13                 : 0
    faces with face-decomposition tet quality < -1e-30      : 0
    faces with concavity > 80  degrees                     : 0
    faces with skewness > 4   (internal) or 20  (boundary) : 0
    faces with interpolation weights (0..1)  < 0.05        : 0
    faces with volume ratio of neighbour cells < 0.01      : 0
    faces with face twist < 0.05                           : 0
    faces on cells with determinant < 0.001                : 0
Successfully moved mesh
Moved mesh in = 0.55 s



Morph iteration 10
-----------------
Calculating patchDisplacement as distance to nearest surface point ...
Wanted displacement : average:2.15285e-05 min:5.077e-10 max:0.00052707
Calculated surface displacement in = 0.03 s


Detecting near surfaces ...
Overriding nearest with intersection of close gaps at 4165 out of 9141 points.
Overriding displacement on features :
   implicit features    : false
   explicit features    : true
   multi-patch features : false

Detected 39 baffle edges out of 17973 edges.
Initially selected 762 points out of 9141 for reverse attraction.
Selected 1987 points out of 9141 for reverse attraction.
Stringing feature edges : changed 18 points
Stringing feature edges : changed 1 points
Stringing feature edges : changed 0 points
Attraction:
     linear   : max:(-7.22079e-17 6.93889e-17 0.00052707) avg:(1.265e-07 -3.01437e-07 -5.40596e-06)
     feature  : max:(0.000141222 -7.41539e-06 0.00110587) avg:(-1.02624e-07 4.18801e-07 1.12907e-05)
Feature analysis : total master points:9141 attraction to :
    feature point   : 28
    feature edge    : 651
    nearest surface : 0
    rest            : 8462

--> FOAM Warning : Displacement (-2.53088e-05 -2.00204e-05 8.81265e-05) at mesh point 4063 coord (-0.00308367 -0.0141284 0.00128604) points through the surrounding patch faces
Smoothing displacement ...
Iteration 0
Iteration 10
Iteration 20
Displacement smoothed in = 0.08 s


Moving mesh ...

Iteration 0
Moving mesh using displacement scaling : min:1  max:1
Checking faces in error :
    non-orthogonality > 65  degrees                        : 32
    faces with face pyramid volume < 1e-13                 : 8
    faces with face-decomposition tet quality < -1e-30      : 50
    faces with concavity > 80  degrees                     : 3
    faces with skewness > 4   (internal) or 20  (boundary) : 0
    faces with interpolation weights (0..1)  < 0.05        : 0
    faces with volume ratio of neighbour cells < 0.01      : 0
    faces with face twist < 0.05                           : 0
    faces on cells with determinant < 0.001                : 0

Iteration 1
Moving mesh using displacement scaling : min:0.75  max:1
Checking faces in error :
    non-orthogonality > 65  degrees                        : 24
    faces with face pyramid volume < 1e-13                 : 0
    faces with face-decomposition tet quality < -1e-30      : 40
    faces with concavity > 80  degrees                     : 2
    faces with skewness > 4   (internal) or 20  (boundary) : 0
    faces with interpolation weights (0..1)  < 0.05        : 0
    faces with volume ratio of neighbour cells < 0.01      : 0
    faces with face twist < 0.05                           : 0
    faces on cells with determinant < 0.001                : 0

Iteration 2
Moving mesh using displacement scaling : min:0.5625  max:1
Checking faces in error :
    non-orthogonality > 65  degrees                        : 22
    faces with face pyramid volume < 1e-13                 : 0
    faces with face-decomposition tet quality < -1e-30      : 33
    faces with concavity > 80  degrees                     : 1
    faces with skewness > 4   (internal) or 20  (boundary) : 0
    faces with interpolation weights (0..1)  < 0.05        : 0
    faces with volume ratio of neighbour cells < 0.01      : 0
    faces with face twist < 0.05                           : 0
    faces on cells with determinant < 0.001                : 0

Iteration 3
Moving mesh using displacement scaling : min:0.421875  max:1
Checking faces in error :
    non-orthogonality > 65  degrees                        : 19
    faces with face pyramid volume < 1e-13                 : 0
    faces with face-decomposition tet quality < -1e-30      : 23
    faces with concavity > 80  degrees                     : 2
    faces with skewness > 4   (internal) or 20  (boundary) : 0
    faces with interpolation weights (0..1)  < 0.05        : 0
    faces with volume ratio of neighbour cells < 0.01      : 0
    faces with face twist < 0.05                           : 13
    faces on cells with determinant < 0.001                : 0

Iteration 4
Moving mesh using displacement scaling : min:0.316406  max:1
Checking faces in error :
    non-orthogonality > 65  degrees                        : 16
    faces with face pyramid volume < 1e-13                 : 0
    faces with face-decomposition tet quality < -1e-30      : 17
    faces with concavity > 80  degrees                     : 1
    faces with skewness > 4   (internal) or 20  (boundary) : 0
    faces with interpolation weights (0..1)  < 0.05        : 0
    faces with volume ratio of neighbour cells < 0.01      : 0
    faces with face twist < 0.05                           : 16
    faces on cells with determinant < 0.001                : 0

Iteration 5
Displacement scaling for error reduction set to 0.
Moving mesh using displacement scaling : min:0.237305  max:1
Checking faces in error :
    non-orthogonality > 65  degrees                        : 15
    faces with face pyramid volume < 1e-13                 : 0
    faces with face-decomposition tet quality < -1e-30      : 14
    faces with concavity > 80  degrees                     : 2
    faces with skewness > 4   (internal) or 20  (boundary) : 0
    faces with interpolation weights (0..1)  < 0.05        : 0
    faces with volume ratio of neighbour cells < 0.01      : 0
    faces with face twist < 0.05                           : 20
    faces on cells with determinant < 0.001                : 0

Iteration 6
Moving mesh using displacement scaling : min:0  max:1
Checking faces in error :
    non-orthogonality > 65  degrees                        : 3
    faces with face pyramid volume < 1e-13                 : 0
    faces with face-decomposition tet quality < -1e-30      : 0
    faces with concavity > 80  degrees                     : 1
    faces with skewness > 4   (internal) or 20  (boundary) : 0
    faces with interpolation weights (0..1)  < 0.05        : 0
    faces with volume ratio of neighbour cells < 0.01      : 0
    faces with face twist < 0.05                           : 0
    faces on cells with determinant < 0.001                : 0

Iteration 7
Moving mesh using displacement scaling : min:0  max:1
Checking faces in error :
    non-orthogonality > 65  degrees                        : 0
    faces with face pyramid volume < 1e-13                 : 0
    faces with face-decomposition tet quality < -1e-30      : 0
    faces with concavity > 80  degrees                     : 0
    faces with skewness > 4   (internal) or 20  (boundary) : 0
    faces with interpolation weights (0..1)  < 0.05        : 0
    faces with volume ratio of neighbour cells < 0.01      : 0
    faces with face twist < 0.05                           : 0
    faces on cells with determinant < 0.001                : 0
Successfully moved mesh
Moved mesh in = 0.6 s



Morph iteration 11
-----------------
Calculating patchDisplacement as distance to nearest surface point ...
Wanted displacement : average:1.51927e-05 min:2.18863e-09 max:0.000527585
Calculated surface displacement in = 0.01 s


Detecting near surfaces ...
Overriding nearest with intersection of close gaps at 4045 out of 9141 points.
Overriding displacement on features :
   implicit features    : false
   explicit features    : true
   multi-patch features : false

Detected 40 baffle edges out of 17973 edges.
Initially selected 764 points out of 9141 for reverse attraction.
Selected 1995 points out of 9141 for reverse attraction.
Stringing feature edges : changed 18 points
Stringing feature edges : changed 1 points
Stringing feature edges : changed 0 points
Attraction:
     linear   : max:(5.42101e-18 -1.9082e-17 0.000527585) avg:(3.75298e-08 -3.64405e-07 -4.25343e-06)
     feature  : max:(0.000645993 0.00025506 0.000718212) avg:(-1.42151e-07 -1.95904e-08 9.35097e-06)
Feature analysis : total master points:9141 attraction to :
    feature point   : 30
    feature edge    : 646
    nearest surface : 0
    rest            : 8465

--> FOAM Warning : Displacement (-2.62744e-05 -1.72435e-05 6.62537e-05) at mesh point 4063 coord (-0.00309907 -0.0141405 0.00133964) points through the surrounding patch faces
Smoothing displacement ...
Iteration 0
Iteration 10
Iteration 20
Displacement smoothed in = 0.09 s


Moving mesh ...

Iteration 0
Moving mesh using displacement scaling : min:1  max:1
Checking faces in error :
    non-orthogonality > 65  degrees                        : 49
    faces with face pyramid volume < 1e-13                 : 12
    faces with face-decomposition tet quality < -1e-30      : 81
    faces with concavity > 80  degrees                     : 5
    faces with skewness > 4   (internal) or 20  (boundary) : 0
    faces with interpolation weights (0..1)  < 0.05        : 0
    faces with volume ratio of neighbour cells < 0.01      : 0
    faces with face twist < 0.05                           : 1
    faces on cells with determinant < 0.001                : 0

Iteration 1
Moving mesh using displacement scaling : min:0.75  max:1
Checking faces in error :
    non-orthogonality > 65  degrees                        : 42
    faces with face pyramid volume < 1e-13                 : 8
    faces with face-decomposition tet quality < -1e-30      : 72
    faces with concavity > 80  degrees                     : 3
    faces with skewness > 4   (internal) or 20  (boundary) : 0
    faces with interpolation weights (0..1)  < 0.05        : 0
    faces with volume ratio of neighbour cells < 0.01      : 0
    faces with face twist < 0.05                           : 2
    faces on cells with determinant < 0.001                : 0

Iteration 2
Moving mesh using displacement scaling : min:0.5625  max:1
Checking faces in error :
    non-orthogonality > 65  degrees                        : 35
    faces with face pyramid volume < 1e-13                 : 0
    faces with face-decomposition tet quality < -1e-30      : 69
    faces with concavity > 80  degrees                     : 2
    faces with skewness > 4   (internal) or 20  (boundary) : 0
    faces with interpolation weights (0..1)  < 0.05        : 0
    faces with volume ratio of neighbour cells < 0.01      : 0
    faces with face twist < 0.05                           : 1
    faces on cells with determinant < 0.001                : 0

Iteration 3
Moving mesh using displacement scaling : min:0.421875  max:1
Checking faces in error :
    non-orthogonality > 65  degrees                        : 32
    faces with face pyramid volume < 1e-13                 : 0
    faces with face-decomposition tet quality < -1e-30      : 52
    faces with concavity > 80  degrees                     : 2
    faces with skewness > 4   (internal) or 20  (boundary) : 0
    faces with interpolation weights (0..1)  < 0.05        : 0
    faces with volume ratio of neighbour cells < 0.01      : 0
    faces with face twist < 0.05                           : 6
    faces on cells with determinant < 0.001                : 0

Iteration 4
Moving mesh using displacement scaling : min:0.316406  max:1
Checking faces in error :
    non-orthogonality > 65  degrees                        : 28
    faces with face pyramid volume < 1e-13                 : 0
    faces with face-decomposition tet quality < -1e-30      : 32
    faces with concavity > 80  degrees                     : 1
    faces with skewness > 4   (internal) or 20  (boundary) : 0
    faces with interpolation weights (0..1)  < 0.05        : 0
    faces with volume ratio of neighbour cells < 0.01      : 0
    faces with face twist < 0.05                           : 16
    faces on cells with determinant < 0.001                : 0

Iteration 5
Displacement scaling for error reduction set to 0.
Moving mesh using displacement scaling : min:0.237305  max:1
Checking faces in error :
    non-orthogonality > 65  degrees                        : 23
    faces with face pyramid volume < 1e-13                 : 0
    faces with face-decomposition tet quality < -1e-30      : 30
    faces with concavity > 80  degrees                     : 1
    faces with skewness > 4   (internal) or 20  (boundary) : 0
    faces with interpolation weights (0..1)  < 0.05        : 0
    faces with volume ratio of neighbour cells < 0.01      : 0
    faces with face twist < 0.05                           : 17
    faces on cells with determinant < 0.001                : 0

Iteration 6
Moving mesh using displacement scaling : min:0  max:1
Checking faces in error :
    non-orthogonality > 65  degrees                        : 1
    faces with face pyramid volume < 1e-13                 : 0
    faces with face-decomposition tet quality < -1e-30      : 3
    faces with concavity > 80  degrees                     : 0
    faces with skewness > 4   (internal) or 20  (boundary) : 0
    faces with interpolation weights (0..1)  < 0.05        : 0
    faces with volume ratio of neighbour cells < 0.01      : 0
    faces with face twist < 0.05                           : 1
    faces on cells with determinant < 0.001                : 0

Iteration 7
Moving mesh using displacement scaling : min:0  max:1
Checking faces in error :
    non-orthogonality > 65  degrees                        : 0
    faces with face pyramid volume < 1e-13                 : 0
    faces with face-decomposition tet quality < -1e-30      : 0
    faces with concavity > 80  degrees                     : 0
    faces with skewness > 4   (internal) or 20  (boundary) : 0
    faces with interpolation weights (0..1)  < 0.05        : 0
    faces with volume ratio of neighbour cells < 0.01      : 0
    faces with face twist < 0.05                           : 0
    faces on cells with determinant < 0.001                : 0
Successfully moved mesh
Moved mesh in = 0.67 s



Morph iteration 12
-----------------
Calculating patchDisplacement as distance to nearest surface point ...
Wanted displacement : average:1.08864e-05 min:5.39368e-10 max:0.000528578
Calculated surface displacement in = 0.01 s


Detecting near surfaces ...
Overriding nearest with intersection of close gaps at 4038 out of 9141 points.
Overriding displacement on features :
   implicit features    : false
   explicit features    : true
   multi-patch features : false

Detected 42 baffle edges out of 17973 edges.
Initially selected 782 points out of 9141 for reverse attraction.
Selected 2024 points out of 9141 for reverse attraction.
Stringing feature edges : changed 18 points
[...]
    faces with face pyramid volume < 1e-13                 : 46
    faces with face-decomposition tet quality < -1e-30      : 104
    faces with concavity > 80  degrees                     : 7
    faces with skewness > 4   (internal) or 20  (boundary) : 0
    faces with interpolation weights (0..1)  < 0.05        : 0
    faces with volume ratio of neighbour cells < 0.01      : 0
    faces with face twist < 0.05                           : 3
    faces on cells with determinant < 0.001                : 0

Iteration 1
Moving mesh using displacement scaling : min:0.75  max:1
Checking faces in error :
    non-orthogonality > 65  degrees                        : 78
    faces with face pyramid volume < 1e-13                 : 29
    faces with face-decomposition tet quality < -1e-30      : 86
    faces with concavity > 80  degrees                     : 3
    faces with skewness > 4   (internal) or 20  (boundary) : 0
    faces with interpolation weights (0..1)  < 0.05        : 0
    faces with volume ratio of neighbour cells < 0.01      : 0
    faces with face twist < 0.05                           : 1
    faces on cells with determinant < 0.001                : 0

Iteration 2
Moving mesh using displacement scaling : min:0.5625  max:1
Checking faces in error :
    non-orthogonality > 65  degrees                        : 64
    faces with face pyramid volume < 1e-13                 : 10
    faces with face-decomposition tet quality < -1e-30      : 67
    faces with concavity > 80  degrees                     : 4
    faces with skewness > 4   (internal) or 20  (boundary) : 0
    faces with interpolation weights (0..1)  < 0.05        : 0
    faces with volume ratio of neighbour cells < 0.01      : 0
    faces with face twist < 0.05                           : 1
    faces on cells with determinant < 0.001                : 0

Iteration 3
Moving mesh using displacement scaling : min:0.421875  max:1
Checking faces in error :
    non-orthogonality > 65  degrees                        : 56
    faces with face pyramid volume < 1e-13                 : 2
    faces with face-decomposition tet quality < -1e-30      : 65
    faces with concavity > 80  degrees                     : 2
    faces with skewness > 4   (internal) or 20  (boundary) : 0
    faces with interpolation weights (0..1)  < 0.05        : 0
    faces with volume ratio of neighbour cells < 0.01      : 0
    faces with face twist < 0.05                           : 1
    faces on cells with determinant < 0.001                : 0

Iteration 4
Moving mesh using displacement scaling : min:0.316406  max:1
Checking faces in error :
    non-orthogonality > 65  degrees                        : 52
    faces with face pyramid volume < 1e-13                 : 0
    faces with face-decomposition tet quality < -1e-30      : 59
    faces with concavity > 80  degrees                     : 3
    faces with skewness > 4   (internal) or 20  (boundary) : 0
    faces with interpolation weights (0..1)  < 0.05        : 0
    faces with volume ratio of neighbour cells < 0.01      : 0
    faces with face twist < 0.05                           : 0
    faces on cells with determinant < 0.001                : 0

Iteration 5
Displacement scaling for error reduction set to 0.
Moving mesh using displacement scaling : min:0.237305  max:1
Checking faces in error :
    non-orthogonality > 65  degrees                        : 41
    faces with face pyramid volume < 1e-13                 : 0
    faces with face-decomposition tet quality < -1e-30      : 51
    faces with concavity > 80  degrees                     : 1
    faces with skewness > 4   (internal) or 20  (boundary) : 0
    faces with interpolation weights (0..1)  < 0.05        : 0
    faces with volume ratio of neighbour cells < 0.01      : 0
    faces with face twist < 0.05                           : 2
    faces on cells with determinant < 0.001                : 0

Iteration 6
Moving mesh using displacement scaling : min:0  max:1
Checking faces in error :
    non-orthogonality > 65  degrees                        : 10
    faces with face pyramid volume < 1e-13                 : 0
    faces with face-decomposition tet quality < -1e-30      : 3
    faces with concavity > 80  degrees                     : 2
    faces with skewness > 4   (internal) or 20  (boundary) : 0
    faces with interpolation weights (0..1)  < 0.05        : 0
    faces with volume ratio of neighbour cells < 0.01      : 0
    faces with face twist < 0.05                           : 0
    faces on cells with determinant < 0.001                : 0

Iteration 7
Moving mesh using displacement scaling : min:0  max:1
Checking faces in error :
    non-orthogonality > 65  degrees                        : 2
    faces with face pyramid volume < 1e-13                 : 0
    faces with face-decomposition tet quality < -1e-30      : 1
    faces with concavity > 80  degrees                     : 0
    faces with skewness > 4   (internal) or 20  (boundary) : 0
    faces with interpolation weights (0..1)  < 0.05        : 0
    faces with volume ratio of neighbour cells < 0.01      : 0
    faces with face twist < 0.05                           : 0
    faces on cells with determinant < 0.001                : 0

Iteration 8
Moving mesh using displacement scaling : min:0  max:1
Checking faces in error :
    non-orthogonality > 65  degrees                        : 2
    faces with face pyramid volume < 1e-13                 : 0
    faces with face-decomposition tet quality < -1e-30      : 0
    faces with concavity > 80  degrees                     : 0
    faces with skewness > 4   (internal) or 20  (boundary) : 0
    faces with interpolation weights (0..1)  < 0.05        : 0
    faces with volume ratio of neighbour cells < 0.01      : 0
    faces with face twist < 0.05                           : 0
    faces on cells with determinant < 0.001                : 0

Iteration 9
Moving mesh using displacement scaling : min:0  max:1
Checking faces in error :
    non-orthogonality > 65  degrees                        : 2
    faces with face pyramid volume < 1e-13                 : 0
    faces with face-decomposition tet quality < -1e-30      : 0
    faces with concavity > 80  degrees                     : 0
    faces with skewness > 4   (internal) or 20  (boundary) : 0
    faces with interpolation weights (0..1)  < 0.05        : 0
    faces with volume ratio of neighbour cells < 0.01      : 0
    faces with face twist < 0.05                           : 0
    faces on cells with determinant < 0.001                : 0
Moved mesh in = 0.78 s


--> FOAM Warning : 
    From function void Foam::snappySnapDriver::doSnap(const Foam::dictionary&, const Foam::dictionary&, Foam::scalar, Foam::scalar, const Foam::snapParameters&)
    in file snappyHexMeshDriver/snappySnapDriver.C at line 2764
    Did not successfully snap mesh. Continuing to snap to resolve easy
    surfaces but the resulting mesh will not satisfy your quality constraints


Morph iteration 14
-----------------
Calculating patchDisplacement as distance to nearest surface point ...
Wanted displacement : average:7.00309e-06 min:1.62876e-11 max:0.000532026
Calculated surface displacement in = 0.01 s


Detecting near surfaces ...
Overriding nearest with intersection of close gaps at 4003 out of 9141 points.
Overriding displacement on features :
   implicit features    : false
   explicit features    : true
   multi-patch features : false

Detected 47 baffle edges out of 17973 edges.
Initially selected 813 points out of 9141 for reverse attraction.
Selected 2079 points out of 9141 for reverse attraction.
Stringing feature edges : changed 16 points
Stringing feature edges : changed 0 points
Attraction:
     linear   : max:(4.33681e-19 2.1684e-19 0.000532026) avg:(1.94446e-07 -1.38851e-07 -2.32013e-06)
     feature  : max:(0.000605098 0.000233759 0.000614315) avg:(-3.46365e-08 -5.82063e-08 7.12381e-06)
Feature analysis : total master points:9141 attraction to :
    feature point   : 39
    feature edge    : 666
    nearest surface : 0
    rest            : 8436

--> FOAM Warning : Displacement (-1.04304e-05 7.12785e-06 -2.84435e-06) at mesh point 15930 coord (0.00476697 -0.0136961 0.00265481) points through the surrounding patch faces
Smoothing displacement ...
Iteration 0
Iteration 10
Iteration 20
Displacement smoothed in = 0.08 s


Moving mesh ...

Iteration 0
Moving mesh using displacement scaling : min:1  max:1
Checking faces in error :
    non-orthogonality > 65  degrees                        : 143
    faces with face pyramid volume < 1e-13                 : 43
    faces with face-decomposition tet quality < -1e-30      : 104
    faces with concavity > 80  degrees                     : 5
    faces with skewness > 4   (internal) or 20  (boundary) : 0
    faces with interpolation weights (0..1)  < 0.05        : 0
    faces with volume ratio of neighbour cells < 0.01      : 0
    faces with face twist < 0.05                           : 5
    faces on cells with determinant < 0.001                : 0

Iteration 1
Moving mesh using displacement scaling : min:0.75  max:1
Checking faces in error :
    non-orthogonality > 65  degrees                        : 131
    faces with face pyramid volume < 1e-13                 : 30
    faces with face-decomposition tet quality < -1e-30      : 85
    faces with concavity > 80  degrees                     : 8
    faces with skewness > 4   (internal) or 20  (boundary) : 0
    faces with interpolation weights (0..1)  < 0.05        : 0
    faces with volume ratio of neighbour cells < 0.01      : 0
    faces with face twist < 0.05                           : 4
    faces on cells with determinant < 0.001                : 0

Iteration 2
Moving mesh using displacement scaling : min:0.5625  max:1
Checking faces in error :
    non-orthogonality > 65  degrees                        : 108
    faces with face pyramid volume < 1e-13                 : 27
    faces with face-decomposition tet quality < -1e-30      : 64
    faces with concavity > 80  degrees                     : 4
    faces with skewness > 4   (internal) or 20  (boundary) : 0
    faces with interpolation weights (0..1)  < 0.05        : 0
    faces with volume ratio of neighbour cells < 0.01      : 0
    faces with face twist < 0.05                           : 3
    faces on cells with determinant < 0.001                : 0

Iteration 3
Moving mesh using displacement scaling : min:0.421875  max:1
Checking faces in error :
    non-orthogonality > 65  degrees                        : 91
    faces with face pyramid volume < 1e-13                 : 11
    faces with face-decomposition tet quality < -1e-30      : 65
    faces with concavity > 80  degrees                     : 4
    faces with skewness > 4   (internal) or 20  (boundary) : 0
    faces with interpolation weights (0..1)  < 0.05        : 0
    faces with volume ratio of neighbour cells < 0.01      : 0
    faces with face twist < 0.05                           : 2
    faces on cells with determinant < 0.001                : 0

Iteration 4
Moving mesh using displacement scaling : min:0.316406  max:1
Checking faces in error :
    non-orthogonality > 65  degrees                        : 76
    faces with face pyramid volume < 1e-13                 : 0
    faces with face-decomposition tet quality < -1e-30      : 71
    faces with concavity > 80  degrees                     : 3
    faces with skewness > 4   (internal) or 20  (boundary) : 0
    faces with interpolation weights (0..1)  < 0.05        : 0
    faces with volume ratio of neighbour cells < 0.01      : 0
    faces with face twist < 0.05                           : 3
    faces on cells with determinant < 0.001                : 0

Iteration 5
Displacement scaling for error reduction set to 0.
Moving mesh using displacement scaling : min:0.237305  max:1
Checking faces in error :
    non-orthogonality > 65  degrees                        : 66
    faces with face pyramid volume < 1e-13                 : 0
    faces with face-decomposition tet quality < -1e-30      : 61
    faces with concavity > 80  degrees                     : 3
    faces with skewness > 4   (internal) or 20  (boundary) : 0
    faces with interpolation weights (0..1)  < 0.05        : 0
    faces with volume ratio of neighbour cells < 0.01      : 0
    faces with face twist < 0.05                           : 2
    faces on cells with determinant < 0.001                : 0

Iteration 6
Moving mesh using displacement scaling : min:0  max:1
Checking faces in error :
    non-orthogonality > 65  degrees                        : 6
    faces with face pyramid volume < 1e-13                 : 0
    faces with face-decomposition tet quality < -1e-30      : 2
    faces with concavity > 80  degrees                     : 1
    faces with skewness > 4   (internal) or 20  (boundary) : 0
    faces with interpolation weights (0..1)  < 0.05        : 0
    faces with volume ratio of neighbour cells < 0.01      : 0
    faces with face twist < 0.05                           : 0
    faces on cells with determinant < 0.001                : 0

Iteration 7
Moving mesh using displacement scaling : min:0  max:1
Checking faces in error :
    non-orthogonality > 65  degrees                        : 6
    faces with face pyramid volume < 1e-13                 : 0
    faces with face-decomposition tet quality < -1e-30      : 0
    faces with concavity > 80  degrees                     : 0
    faces with skewness > 4   (internal) or 20  (boundary) : 0
    faces with interpolation weights (0..1)  < 0.05        : 0
    faces with volume ratio of neighbour cells < 0.01      : 0
    faces with face twist < 0.05                           : 0
    faces on cells with determinant < 0.001                : 0

Iteration 8
Moving mesh using displacement scaling : min:0  max:1
Checking faces in error :
    non-orthogonality > 65  degrees                        : 6
    faces with face pyramid volume < 1e-13                 : 0
    faces with face-decomposition tet quality < -1e-30      : 0
    faces with concavity > 80  degrees                     : 0
    faces with skewness > 4   (internal) or 20  (boundary) : 0
    faces with interpolation weights (0..1)  < 0.05        : 0
    faces with volume ratio of neighbour cells < 0.01      : 0
    faces with face twist < 0.05                           : 0
    faces on cells with determinant < 0.001                : 0

Iteration 9
Moving mesh using displacement scaling : min:0  max:1
Checking faces in error :
    non-orthogonality > 65  degrees                        : 6
    faces with face pyramid volume < 1e-13                 : 0
    faces with face-decomposition tet quality < -1e-30      : 0
    faces with concavity > 80  degrees                     : 0
    faces with skewness > 4   (internal) or 20  (boundary) : 0
    faces with interpolation weights (0..1)  < 0.05        : 0
    faces with volume ratio of neighbour cells < 0.01      : 0
    faces with face twist < 0.05                           : 0
    faces on cells with determinant < 0.001                : 0
Moved mesh in = 0.82 s


--> FOAM Warning : 
    From function void Foam::snappySnapDriver::doSnap(const Foam::dictionary&, const Foam::dictionary&, Foam::scalar, Foam::scalar, const Foam::snapParameters&)
    in file snappyHexMeshDriver/snappySnapDriver.C at line 2764
    Did not successfully snap mesh. Continuing to snap to resolve easy
    surfaces but the resulting mesh will not satisfy your quality constraints

Converting 2805 baffles back into zoned faces ...
Edge intersection testing:
    Number of edges             : 58615
    Number of edges to retest   : 2805
    Number of intersected edges : 8717
Converted baffles in = 0.05 s


Repatching faces according to nearest surface ...
Repatched 0 faces in = 0.01 s


Edge intersection testing:
    Number of edges             : 58615
    Number of edges to retest   : 21662
    Number of intersected edges : 8782
Merging 779 sets of faces.

Edge intersection testing:
    Number of edges             : 57829
    Number of edges to retest   : 3330
    Number of intersected edges : 7995

Undo iteration 0
----------------
Checking faces in error :
    non-orthogonality > 65  degrees                        : 6
    faces with face pyramid volume < 1e-13                 : 0
    faces with face-decomposition tet quality < -1e-30      : 0
    faces with concavity > 80  degrees                     : 0
    faces with skewness > 4   (internal) or 20  (boundary) : 0
    faces with interpolation weights (0..1)  < 0.05        : 0
    faces with volume ratio of neighbour cells < 0.01      : 0
    faces with face twist < 0.05                           : 1
    faces on cells with determinant < 0.001                : 0
Masters that need to be restored:1
Edge intersection testing:
    Number of edges             : 57830
    Number of edges to retest   : 6
    Number of intersected edges : 7996


Undo iteration 1
----------------
Checking faces in error :
    non-orthogonality > 65  degrees                        : 6
    faces with face pyramid volume < 1e-13                 : 0
    faces with face-decomposition tet quality < -1e-30      : 0
    faces with concavity > 80  degrees                     : 0
    faces with skewness > 4   (internal) or 20  (boundary) : 0
    faces with interpolation weights (0..1)  < 0.05        : 0
    faces with volume ratio of neighbour cells < 0.01      : 0
    faces with face twist < 0.05                           : 0
    faces on cells with determinant < 0.001                : 0
Masters that need to be restored:0

Merging all points on surface that
- are used by only two boundary faces and
- make an angle with a cosine of more than 0.866025.

Removing 611 straight edge points ...

Edge intersection testing:
    Number of edges             : 57830
    Number of edges to retest   : 2700
    Number of intersected edges : 7997

Undo iteration 0
----------------
Checking faces in error :
    non-orthogonality > 65  degrees                        : 6
    faces with face pyramid volume < 1e-13                 : 0
    faces with face-decomposition tet quality < -1e-30      : 0
    faces with concavity > 80  degrees                     : 0
    faces with skewness > 4   (internal) or 20  (boundary) : 0
    faces with interpolation weights (0..1)  < 0.05        : 0
    faces with volume ratio of neighbour cells < 0.01      : 0
    faces with face twist < 0.05                           : 0
    faces on cells with determinant < 0.001                : 0
Detected 0 error faces on boundaries that have been merged. These will be restored to their original faces.

Detected 6 error faces in mesh. Restoring neighbours of faces in error.

Edge intersection testing:
    Number of edges             : 57830
    Number of edges to retest   : 413
    Number of intersected edges : 7997

Removing zero-sized patches:
    allBoundary type patch at position 0
    RF type wall at position 4
    RF_slave type wall at position 5

Snapped mesh : cells:17002  faces:57830  points:24152
Cells per refinement level:
    0	1632
    1	10436
    2	4934
Writing mesh to time constant
Wrote mesh in = 0.45 s.
Mesh snapped in = 8.69 s.
Checking final mesh ...
Checking faces in error :
    non-orthogonality > 65  degrees                        : 6
    faces with face pyramid volume < 1e-13                 : 0
    faces with face-decomposition tet quality < -1e-30      : 0
    faces with concavity > 80  degrees                     : 0
    faces with skewness > 4   (internal) or 20  (boundary) : 0
    faces with interpolation weights (0..1)  < 0.05        : 0
    faces with volume ratio of neighbour cells < 0.01      : 0
    faces with face twist < 0.05                           : 0
    faces on cells with determinant < 0.001                : 0
Finished meshing with 6 illegal faces (concave, zero area or negative cell pyramid volume)
Finished meshing in = 16.44 s.
End

