/*---------------------------------------------------------------------------*\
  =========                 |
  \\      /  F ield         | OpenFOAM: The Open Source CFD Toolbox
   \\    /   O peration     | Website:  https://openfoam.org
    \\  /    A nd           | Version:  8
     \\/     M anipulation  |
\*---------------------------------------------------------------------------*/
Build  : 8-1c9b5879390b
Exec   : blockMesh
Date   : Jul 29 2021
Time   : 17:28:46
Host   : "Lukasinator"
PID    : 17939
I/O    : uncollated
Case   : /home/lukas/000_MA/programming_experiments/99_testCase_simpleFoam
nProcs : 1
sigFpe : Enabling floating point exception trapping (FOAM_SIGFPE).
fileModificationChecking : Monitoring run-time modified files using timeStampMaster (fileModificationSkew 10)
allowSystemOperations : Allowing user-supplied system call operations

// * * * * * * * * * * * * * * * * * * * * * * * * * * * * * * * * * * * * * //
Create time

Deleting polyMesh directory
    "/home/lukas/000_MA/programming_experiments/99_testCase_simpleFoam/constant/polyMesh"
Creating block mesh from
    "system/blockMeshDict"
Creating block edges
No non-planar block faces defined
Creating topology blocks
Creating topology patches

Creating block mesh topology

Check topology

	Basic statistics
		Number of internal faces : 0
		Number of boundary faces : 6
		Number of defined boundary faces : 6
		Number of undefined boundary faces : 0
	Checking patch -> block consistency

Creating block offsets
Creating merge list .

Creating polyMesh from blockMesh
Creating patches
Creating cells
Creating points with scale 1
    Block 0 cell size :
        i : 0.00333333 .. 0.00333333
        j : 0.00333333
        k : 0.00265625

There are no merge patch pairs edges

Writing polyMesh
----------------
Mesh Information
----------------
  boundingBox: (-0.05 -0.05 -0.02) (0.05 0.05 0.15)
  nPoints: 62465
  nCells: 57600
  nFaces: 177540
  nInternalFaces: 168060
----------------
Patches
----------------
  patch 0 (start: 168060 size: 9480) name: allBoundary

End

