/*---------------------------------------------------------------------------*\
  =========                 |
  \\      /  F ield         | OpenFOAM: The Open Source CFD Toolbox
   \\    /   O peration     | Website:  https://openfoam.org
    \\  /    A nd           | Version:  8
     \\/     M anipulation  |
\*---------------------------------------------------------------------------*/
Build  : 8-1c9b5879390b
Exec   : simpleFoam
Date   : Jul 29 2021
Time   : 17:29:14
Host   : "Lukasinator"
PID    : 17945
I/O    : uncollated
Case   : /home/lukas/000_MA/programming_experiments/99_testCase_simpleFoam
nProcs : 1
sigFpe : Enabling floating point exception trapping (FOAM_SIGFPE).
fileModificationChecking : Monitoring run-time modified files using timeStampMaster (fileModificationSkew 10)
allowSystemOperations : Allowing user-supplied system call operations

// * * * * * * * * * * * * * * * * * * * * * * * * * * * * * * * * * * * * * //
Create time

Create mesh for time = 0


SIMPLE: Convergence criteria found
        p: tolerance 0.01
        U: tolerance 0.001
        "(k|omega)": tolerance 0.001

Reading field p



--> FOAM FATAL IO ERROR: 
Cannot find patchField entry for allBoundary

file: /home/lukas/000_MA/programming_experiments/99_testCase_simpleFoam/0/p/boundaryField from line 25 to line 45.

    From function void Foam::GeometricField<Type, PatchField, GeoMesh>::Boundary::readField(const Foam::DimensionedField<TypeR, GeoMesh>&, const Foam::dictionary&) [with Type = double; PatchField = Foam::fvPatchField; GeoMesh = Foam::volMesh]
    in file /home/ubuntu/OpenFOAM/OpenFOAM-8/src/OpenFOAM/lnInclude/GeometricBoundaryField.C at line 184.

FOAM exiting

