/*---------------------------------------------------------------------------*\
  =========                 |
  \\      /  F ield         | OpenFOAM: The Open Source CFD Toolbox
   \\    /   O peration     | Website:  https://openfoam.org
    \\  /    A nd           | Version:  8
     \\/     M anipulation  |
\*---------------------------------------------------------------------------*/
Build  : 8-1c9b5879390b
Exec   : snappyHexMesh -overwrite
Date   : Jul 29 2021
Time   : 17:28:47
Host   : "Lukasinator"
PID    : 17943
I/O    : uncollated
Case   : /home/lukas/000_MA/programming_experiments/99_testCase_simpleFoam
nProcs : 1
sigFpe : Enabling floating point exception trapping (FOAM_SIGFPE).
fileModificationChecking : Monitoring run-time modified files using timeStampMaster (fileModificationSkew 10)
allowSystemOperations : Allowing user-supplied system call operations

// * * * * * * * * * * * * * * * * * * * * * * * * * * * * * * * * * * * * * //
Create time

Create mesh for time = 0

Read mesh in = 0.3 s

Overall mesh bounding box  : (-0.05 -0.05 -0.02) (0.05 0.05 0.15)
Relative tolerance         : 1e-06
Absolute matching distance : 2.21133e-07

Reading refinement surfaces.
Read refinement surfaces in = 0.05 s

Reading refinement shells.
Read refinement shells in = 0 s

Setting refinement level of surface to be consistent with shells.
Checked shell refinement in = 0 s

Reading features.
Read edgeMesh wall1.eMesh
    points      : 332
    edges       : 332
    boundingBox : (-0.0149951 -1.21543e-17 -0.0149951) (0.0149951 0.052 0.0149951)

Refinement level according to distance to "wall1.eMesh" (332 points, 332 edges).
    level 1 for all cells within 0 metre.
Read edgeMesh top.eMesh
    points      : 210
    edges       : 210
    boundingBox : (-0.0149997 0.052 -0.0149966) (0.0149958 0.056 0.0149994)

Refinement level according to distance to "top.eMesh" (210 points, 210 edges).
    level 1 for all cells within 0 metre.
Read edgeMesh stirrer.eMesh
    points      : 93
    edges       : 113
    boundingBox : (-0.00595701 0.000910833 -0.0068119) (0.007 0.052 0.0068119)

Refinement level according to distance to "stirrer.eMesh" (93 points, 113 edges).
    level 1 for all cells within 0 metre.
Read edgeMesh RF.eMesh
    points      : 200
    edges       : 200
    boundingBox : (-0.008 -0.003 -0.008) (0.008 0.007 0.008)

Refinement level according to distance to "RF.eMesh" (200 points, 200 edges).
    level 1 for all cells within 0 metre.
Read edgeMesh bottom.eMesh
    points      : 205
    edges       : 205
    boundingBox : (-0.0149999 3.46945e-17 -0.0149999) (0.0149999 5.89806e-17 0.0149999)

Refinement level according to distance to "bottom.eMesh" (205 points, 205 edges).
    level 1 for all cells within 0 metre.
Read features in = 0 s


Determining initial surface intersections
-----------------------------------------

Edge intersection testing:
    Number of edges             : 177540
    Number of edges to retest   : 177540
    Number of intersected edges : 1000
Calculated surface intersections in = 0.37 s

Initial mesh : cells:57600  faces:177540  points:62465
Cells per refinement level:
    0	57600

Adding patches for surface regions
----------------------------------

Patch Type                Region                        
----- ----                ------                        
wall1:

1     wall                wall1                         

top:

2     symmetry            top                           

stirrer:

3     wall                stirrer                       

RF:

4     wall                RF                            
5     wall                RF_slave                      

bottom:

6     wall                bottom                        

Added patches in = 0 s

Selecting decompositionMethod none
Layer thickness specified as final layer and expansion ratio.

Refinement phase
----------------

Found point (0 0.01 0.005) in cell 8624 on processor 0

Feature refinement iteration 0
------------------------------

Marked for refinement due to explicit features             : 150 cells.
Determined cells to refine in = 0.7 s
Selected for feature refinement : 150 cells (out of 57600)
Edge intersection testing:
    Number of edges             : 181389
    Number of edges to retest   : 5626
    Number of intersected edges : 1747
Refined mesh in = 0.45 s
After refinement feature refinement iteration 0 : cells:58650  faces:181389  points:64280
Cells per refinement level:
    0	57450
    1	1200

Feature refinement iteration 1
------------------------------

Marked for refinement due to explicit features             : 0 cells.
Determined cells to refine in = 1.03 s
Selected for feature refinement : 0 cells (out of 58650)
Stopping refining since too few cells selected.


Surface refinement iteration 0
------------------------------

Marked for refinement due to surface intersection          : 106 cells.
Marked for refinement due to curvature/regions             : 1155 cells.
Determined cells to refine in = 0.03 s
Selected for refinement : 1263 cells (out of 58650)
Edge intersection testing:
    Number of edges             : 210375
    Number of edges to retest   : 40049
    Number of intersected edges : 5995
Refined mesh in = 0.55 s
After refinement surface refinement iteration 0 : cells:67491  faces:210375  points:75637
Cells per refinement level:
    0	56322
    1	10089
    2	1080

Surface refinement iteration 1
------------------------------

Marked for refinement due to surface intersection          : 0 cells.
Marked for refinement due to curvature/regions             : 52 cells.
Determined cells to refine in = 0.06 s
Selected for refinement : 52 cells (out of 67491)
Edge intersection testing:
    Number of edges             : 211650
    Number of edges to retest   : 3481
    Number of intersected edges : 6128
Refined mesh in = 0.46 s
After refinement surface refinement iteration 1 : cells:67855  faces:211650  points:76185
Cells per refinement level:
    0	56318
    1	10073
    2	1464

Surface refinement iteration 2
------------------------------

Marked for refinement due to surface intersection          : 0 cells.
Marked for refinement due to curvature/regions             : 6 cells.
Determined cells to refine in = 0.06 s
Selected for refinement : 6 cells (out of 67855)
Edge intersection testing:
    Number of edges             : 211788
    Number of edges to retest   : 519
    Number of intersected edges : 6128
Refined mesh in = 0.41 s
After refinement surface refinement iteration 2 : cells:67897  faces:211788  points:76235
Cells per refinement level:
    0	56318
    1	10067
    2	1512

Surface refinement iteration 3
------------------------------

Marked for refinement due to surface intersection          : 0 cells.
Marked for refinement due to curvature/regions             : 0 cells.
Determined cells to refine in = 0.07 s
Selected for refinement : 0 cells (out of 67897)
Stopping refining since too few cells selected.


Removing mesh beyond surface intersections
------------------------------------------

Found point (0 0.01 0.005) in global region 2 out of 48 regions.
Keeping all cells in region 2 containing point (0 0.01 0.005)
Selected for keeping : 10548 cells.
Edge intersection testing:
    Number of edges             : 35561
    Number of edges to retest   : 3536
    Number of intersected edges : 6128

Shell refinement iteration 0
----------------------------

Marked for refinement due to distance to explicit features : 0 cells.
Marked for refinement due to refinement shells             : 0 cells.
Determined cells to refine in = 1.97 s
Selected for internal refinement : 139 cells (out of 10548)
Edge intersection testing:
    Number of edges             : 38798
    Number of edges to retest   : 9293
    Number of intersected edges : 6413
Refined mesh in = 0.12 s
After refinement shell refinement iteration 0 : cells:11521  faces:38798  points:15923
Cells per refinement level:
    0	596
    1	8397
    2	2528

Shell refinement iteration 1
----------------------------

Marked for refinement due to distance to explicit features : 0 cells.
Marked for refinement due to refinement shells             : 0 cells.
Determined cells to refine in = 0.02 s
Selected for internal refinement : 0 cells (out of 11521)
Stopping refining since too few cells selected.


Dangling coarse cells refinement iteration 0
--------------------------------------------

Determined cells to refine in = 0.02 s
Selected for refinement : 6 cells (out of 11521)
Edge intersection testing:
    Number of edges             : 38888
    Number of edges to retest   : 819
    Number of intersected edges : 6413
Refined mesh in = 0.07 s
After refinement coarse cell refinement iteration 0 : cells:11563  faces:38888  points:15935
Cells per refinement level:
    0	590
    1	8445
    2	2528

Dangling coarse cells refinement iteration 1
--------------------------------------------

Determined cells to refine in = 0.02 s
Selected for refinement : 6 cells (out of 11563)
Edge intersection testing:
    Number of edges             : 38978
    Number of edges to retest   : 867
    Number of intersected edges : 6413
Refined mesh in = 0.08 s
After refinement coarse cell refinement iteration 1 : cells:11605  faces:38978  points:15947
Cells per refinement level:
    0	584
    1	8493
    2	2528

Dangling coarse cells refinement iteration 2
--------------------------------------------

Determined cells to refine in = 0 s
Selected for refinement : 5 cells (out of 11605)
Edge intersection testing:
    Number of edges             : 39053
    Number of edges to retest   : 678
    Number of intersected edges : 6413
Refined mesh in = 0.11 s
After refinement coarse cell refinement iteration 2 : cells:11640  faces:39053  points:15957
Cells per refinement level:
    0	579
    1	8533
    2	2528

Dangling coarse cells refinement iteration 3
--------------------------------------------

Determined cells to refine in = 0 s
Selected for refinement : 0 cells (out of 11640)
Stopping refining since too few cells selected.


Dangling coarse cells refinement iteration 0
--------------------------------------------

Determined cells to refine in = 0 s
Selected for refinement : 2 cells (out of 11640)
Edge intersection testing:
    Number of edges             : 39077
    Number of edges to retest   : 300
    Number of intersected edges : 6413
Refined mesh in = 0.1 s
After refinement coarse cell refinement iteration 0 : cells:11654  faces:39077  points:15959
Cells per refinement level:
    0	577
    1	8549
    2	2528

Dangling coarse cells refinement iteration 1
--------------------------------------------

Determined cells to refine in = 0 s
Selected for refinement : 0 cells (out of 11654)
Stopping refining since too few cells selected.


Splitting mesh at surface intersections
---------------------------------------

Introducing baffles for 6413 faces that are intersected by the surface.

Edge intersection testing:
    Number of edges             : 44240
    Number of edges to retest   : 26120
    Number of intersected edges : 11507
Created baffles in = 0.17 s


After introducing baffles : cells:11654  faces:44240  points:15959
Cells per refinement level:
    0	577
    1	8549
    2	2528

Introducing baffles to block off problem cells
----------------------------------------------

markFacesOnProblemCells : marked 5345 additional internal faces to be converted into baffles.
Analyzed problem cells in = 0.06 s


Introducing baffles to delete problem cells.

Edge intersection testing:
    Number of edges             : 49585
    Number of edges to retest   : 21053
    Number of intersected edges : 11507
Created baffles in = 0.14 s


After introducing baffles : cells:11654  faces:49585  points:15959
Cells per refinement level:
    0	577
    1	8549
    2	2528

Remove unreachable sections of mesh
-----------------------------------

Keeping all cells in region 12 containing point (0 0.01 0.005)
Selected for keeping : 8059 cells.
Edge intersection testing:
    Number of edges             : 28020
    Number of edges to retest   : 0
    Number of intersected edges : 4627
Split mesh in = 0.44 s


After subsetting : cells:8059  faces:28020  points:11986
Cells per refinement level:
    0	541
    1	5027
    2	2491

Introducing zones for interfaces
--------------------------------

Surface : RF
    faceZone : rotating
    cellZone : rotating
Found 1 named surfaces with a provided inside point. Assigning cells inside these surfaces to the corresponding cellZone.

For surface RF finding inside point (0.005 0 0)
For surface RF found point (0.005 0 0) in global region 1 out of 2 regions.
Walking from location-in-mesh (0 0.01 0.005) to assign cellZones - crossing a faceZone face changes cellZone

Found point (0 0.01 0.005) in global region 0 out of 2 regions.
CellZones:
    rotating	size:1288

FaceZones:
    rotating	size:1240

Edge intersection testing:
    Number of edges             : 28020
    Number of edges to retest   : 0
    Number of intersected edges : 4627

Handling cells with snap problems
---------------------------------

Introducing baffles for 4627 faces that are intersected by the surface.

Edge intersection testing:
    Number of edges             : 28020
    Number of edges to retest   : 10581
    Number of intersected edges : 4627
Created baffles in = 0.45 s


After introducing baffles : cells:8059  faces:28020  points:11986
Cells per refinement level:
    0	541
    1	5027
    2	2491

Introducing baffles to block off problem cells
----------------------------------------------

markFacesOnProblemCells : marked 0 additional internal faces to be converted into baffles.
Analyzed problem cells in = 0.04 s


Introducing baffles to delete problem cells.

Edge intersection testing:
    Number of edges             : 28020
    Number of edges to retest   : 0
    Number of intersected edges : 4627
Created baffles in = 0.05 s


After introducing baffles : cells:8059  faces:28020  points:11986
Cells per refinement level:
    0	541
    1	5027
    2	2491

Remove unreachable sections of mesh
-----------------------------------

Keeping all cells in region 0 containing point (0 0.01 0.005)
Selected for keeping : 8059 cells.
Edge intersection testing:
    Number of edges             : 28020
    Number of edges to retest   : 0
    Number of intersected edges : 4627
Split mesh in = 0.31 s


After subsetting : cells:8059  faces:28020  points:11986
Cells per refinement level:
    0	541
    1	5027
    2	2491

Merge free-standing baffles
---------------------------

freeStandingBaffles : detected 38 free-standing baffles out of 38

freeStandingBaffles : detected 0 planar (within 30 degrees) free-standing baffles out of 38

Detected free-standing baffles : 0
Merged free-standing baffles in = 0.02 s


dupNonManifoldPoints : Found : 33 non-manifold points (out of 11986)
Edge intersection testing:
    Number of edges             : 28020
    Number of edges to retest   : 0
    Number of intersected edges : 4627
Detected unsplittable baffles : 7
Edge intersection testing:
    Number of edges             : 28013
    Number of edges to retest   : 7
    Number of intersected edges : 4620
Keeping all cells in region 0 containing point (0 0.01 0.005)
Selected for keeping : 8059 cells.
Edge intersection testing:
    Number of edges             : 28013
    Number of edges to retest   : 0
    Number of intersected edges : 4620
Merged free-standing baffles in = 0.45 s.

Merge refined boundary faces
----------------------------

Merging 12 sets of faces.

Edge intersection testing:
    Number of edges             : 27995
    Number of edges to retest   : 109
    Number of intersected edges : 4602

Undo iteration 0
----------------
Checking faces in error :
    non-orthogonality > 65  degrees                        : 0
    faces with face pyramid volume < 1e-13                 : 0
    faces with face-decomposition tet quality < -1e-30      : 0
    faces with concavity > 80  degrees                     : 0
    faces with skewness > 4   (internal) or 20  (boundary) : 0
    faces with interpolation weights (0..1)  < 0.05        : 0
    faces with volume ratio of neighbour cells < 0.01      : 0
    faces with face twist < 0.05                           : 0
    faces on cells with determinant < 0.001                : 0

Merging all points on surface that
- are used by only two boundary faces and
- make an angle with a cosine of more than 0.707107.

Removing 17 straight edge points ...

Edge intersection testing:
    Number of edges             : 27995
    Number of edges to retest   : 145
    Number of intersected edges : 4602

Undo iteration 0
----------------
Checking faces in error :
    non-orthogonality > 65  degrees                        : 0
    faces with face pyramid volume < 1e-13                 : 0
    faces with face-decomposition tet quality < -1e-30      : 0
    faces with concavity > 80  degrees                     : 0
    faces with skewness > 4   (internal) or 20  (boundary) : 0
    faces with interpolation weights (0..1)  < 0.05        : 0
    faces with volume ratio of neighbour cells < 0.01      : 0
    faces with face twist < 0.05                           : 0
    faces on cells with determinant < 0.001                : 0
Refined mesh : cells:8059  faces:27995  points:11999
Cells per refinement level:
    0	541
    1	5027
    2	2491
Writing mesh to time constant
Wrote mesh in = 0.43 s.
Mesh refined in = 8.89 s.

Morphing phase
--------------

Converting zoned faces into baffles ...
For zone rotating found patches RF and RF_slave
Edge intersection testing:
    Number of edges             : 29235
    Number of edges to retest   : 8305
    Number of intersected edges : 5782
Created 1240 baffles in = 0.09 s



Snapping to features in 15 iterations ...
Constructing mesh displacer ...
Using mesh parameters 
{
    maxNonOrtho     65;
    maxBoundarySkewness 20;
    maxInternalSkewness 4;
    maxConcave      80;
    minVol          1e-13;
    minTetQuality   -1e-30;
    minArea         -1;
    minTwist        0.05;
    minDeterminant  0.001;
    minFaceWeight   0.05;
    minVolRatio     0.01;
    minTriangleTwist -1;
    nSmoothScale    4;
    errorReduction  0.75;
    relaxed
    {
        maxNonOrtho     75;
    }
}


Checking initial mesh ...
Checking faces in error :
    non-orthogonality > 65  degrees                        : 0
    faces with face pyramid volume < 1e-13                 : 0
    faces with face-decomposition tet quality < -1e-30      : 0
    faces with concavity > 80  degrees                     : 0
    faces with skewness > 4   (internal) or 20  (boundary) : 0
    faces with interpolation weights (0..1)  < 0.05        : 0
    faces with volume ratio of neighbour cells < 0.01      : 0
    faces with face twist < 0.05                           : 0
    faces on cells with determinant < 0.001                : 0
Detected 0 illegal faces (concave, zero area or negative cell pyramid volume)
Checked initial mesh in = 0.11 s


Smoothing patch points ...
Smoothing iteration 0
Found 60 non-manifold point(s).

Scaling iteration 0
Moving mesh using displacement scaling : min:1  max:1
Checking faces in error :
    non-orthogonality > 65  degrees                        : 0
    faces with face pyramid volume < 1e-13                 : 0
    faces with face-decomposition tet quality < -1e-30      : 0
    faces with concavity > 80  degrees                     : 0
    faces with skewness > 4   (internal) or 20  (boundary) : 0
    faces with interpolation weights (0..1)  < 0.05        : 0
    faces with volume ratio of neighbour cells < 0.01      : 0
    faces with face twist < 0.05                           : 0
    faces on cells with determinant < 0.001                : 0
Successfully moved mesh

Smoothing iteration 1
Found 0 non-manifold point(s).

Scaling iteration 0
Moving mesh using displacement scaling : min:1  max:1
Checking faces in error :
    non-orthogonality > 65  degrees                        : 0
    faces with face pyramid volume < 1e-13                 : 0
    faces with face-decomposition tet quality < -1e-30      : 0
    faces with concavity > 80  degrees                     : 0
    faces with skewness > 4   (internal) or 20  (boundary) : 0
    faces with interpolation weights (0..1)  < 0.05        : 0
    faces with volume ratio of neighbour cells < 0.01      : 0
    faces with face twist < 0.05                           : 0
    faces on cells with determinant < 0.001                : 0
Successfully moved mesh

Smoothing iteration 2
Found 0 non-manifold point(s).

Scaling iteration 0
Moving mesh using displacement scaling : min:1  max:1
Checking faces in error :
    non-orthogonality > 65  degrees                        : 0
    faces with face pyramid volume < 1e-13                 : 0
    faces with face-decomposition tet quality < -1e-30      : 1
    faces with concavity > 80  degrees                     : 0
    faces with skewness > 4   (internal) or 20  (boundary) : 0
    faces with interpolation weights (0..1)  < 0.05        : 0
    faces with volume ratio of neighbour cells < 0.01      : 0
    faces with face twist < 0.05                           : 0
    faces on cells with determinant < 0.001                : 0

Scaling iteration 1
Moving mesh using displacement scaling : min:0.75  max:1
Checking faces in error :
    non-orthogonality > 65  degrees                        : 0
    faces with face pyramid volume < 1e-13                 : 0
    faces with face-decomposition tet quality < -1e-30      : 0
    faces with concavity > 80  degrees                     : 0
    faces with skewness > 4   (internal) or 20  (boundary) : 0
    faces with interpolation weights (0..1)  < 0.05        : 0
    faces with volume ratio of neighbour cells < 0.01      : 0
    faces with face twist < 0.05                           : 0
    faces on cells with determinant < 0.001                : 0
Successfully moved mesh

Patch points smoothed in = 0.42 s



Morph iteration 0
-----------------
Calculating patchDisplacement as distance to nearest surface point ...
Wanted displacement : average:0.000278485 min:3.90156e-07 max:0.00114777
Calculated surface displacement in = 0.03 s


Detecting near surfaces ...
Overriding nearest with intersection of close gaps at 2029 out of 4833 points.
Overriding displacement on features :
   implicit features    : false
   explicit features    : true
   multi-patch features : false

Detected 30 baffle edges out of 9469 edges.
Initially selected 748 points out of 4833 for reverse attraction.
Selected 1573 points out of 4833 for reverse attraction.
Stringing feature edges : changed 40 points
Stringing feature edges : changed 3 points
Stringing feature edges : changed 2 points
Stringing feature edges : changed 0 points
Attraction:
     linear   : max:(-0.000960508 -0.000627541 -3.16319e-05) avg:(4.72972e-07 -4.94169e-06 -3.36487e-05)
     feature  : max:(0.000155609 1.38778e-17 0.00236781) avg:(8.08701e-07 4.80646e-05 -2.12587e-06)
Feature analysis : total master points:4833 attraction to :
    feature point   : 17
    feature edge    : 426
    nearest surface : 0
    rest            : 4390

--> FOAM Warning : Displacement (-1.11644e-08 2.03767e-08 9.05683e-08) at mesh point 3258 coord (0.0147579 0.0416667 -7.8125e-05) points through the surrounding patch faces
Smoothing displacement ...
Iteration 0
Iteration 10
Iteration 20
Displacement smoothed in = 0.13 s


Moving mesh ...

Iteration 0
Moving mesh using displacement scaling : min:1  max:1
Checking faces in error :
    non-orthogonality > 65  degrees                        : 0
    faces with face pyramid volume < 1e-13                 : 0
    faces with face-decomposition tet quality < -1e-30      : 0
    faces with concavity > 80  degrees                     : 0
    faces with skewness > 4   (internal) or 20  (boundary) : 0
    faces with interpolation weights (0..1)  < 0.05        : 0
    faces with volume ratio of neighbour cells < 0.01      : 0
    faces with face twist < 0.05                           : 0
    faces on cells with determinant < 0.001                : 0
Successfully moved mesh
Moved mesh in = 0.11 s



Morph iteration 1
-----------------
Calculating patchDisplacement as distance to nearest surface point ...
Wanted displacement : average:0.000267023 min:1.22344e-07 max:0.00111627
Calculated surface displacement in = 0.04 s


Detecting near surfaces ...
Overriding nearest with intersection of close gaps at 2103 out of 4833 points.
Overriding displacement on features :
   implicit features    : false
   explicit features    : true
   multi-patch features : false

Detected 29 baffle edges out of 9469 edges.
Initially selected 747 points out of 4833 for reverse attraction.
Selected 1574 points out of 4833 for reverse attraction.
Stringing feature edges : changed 36 points
Stringing feature edges : changed 3 points
Stringing feature edges : changed 2 points
Stringing feature edges : changed 0 points
Attraction:
     linear   : max:(-0.000934143 -0.000610316 -3.07637e-05) avg:(3.84751e-07 -4.56413e-06 -3.10566e-05)
     feature  : max:(0.000164033 1.38778e-17 0.00236308) avg:(9.79636e-07 4.82549e-05 -2.03632e-06)
Feature analysis : total master points:4833 attraction to :
    feature point   : 17
    feature edge    : 424
    nearest surface : 0
    rest            : 4392

--> FOAM Warning : Displacement (-7.62328e-07 -1.70682e-06 7.12463e-08) at mesh point 8450 coord (0.0147594 0.00666593 -7.81024e-05) points through the surrounding patch faces
Smoothing displacement ...
Iteration 0
Iteration 10
Iteration 20
Displacement smoothed in = 0.13 s


Moving mesh ...

Iteration 0
Moving mesh using displacement scaling : min:1  max:1
Checking faces in error :
    non-orthogonality > 65  degrees                        : 0
    faces with face pyramid volume < 1e-13                 : 0
    faces with face-decomposition tet quality < -1e-30      : 0
    faces with concavity > 80  degrees                     : 0
    faces with skewness > 4   (internal) or 20  (boundary) : 0
    faces with interpolation weights (0..1)  < 0.05        : 0
    faces with volume ratio of neighbour cells < 0.01      : 0
    faces with face twist < 0.05                           : 0
    faces on cells with determinant < 0.001                : 0
Successfully moved mesh
Moved mesh in = 0.1 s



Morph iteration 2
-----------------
Calculating patchDisplacement as distance to nearest surface point ...
Wanted displacement : average:0.000245057 min:2.58199e-07 max:0.0010503
Calculated surface displacement in = 0.03 s


Detecting near surfaces ...
Overriding nearest with intersection of close gaps at 2204 out of 4833 points.
Overriding displacement on features :
   implicit features    : false
   explicit features    : true
   multi-patch features : false

Detected 30 baffle edges out of 9469 edges.
Initially selected 746 points out of 4833 for reverse attraction.
Selected 1566 points out of 4833 for reverse attraction.
Stringing feature edges : changed 34 points
Stringing feature edges : changed 2 points
Stringing feature edges : changed 2 points
Stringing feature edges : changed 0 points
Attraction:
     linear   : max:(-0.000878934 -0.000574246 -2.89455e-05) avg:(7.72934e-07 -3.83284e-06 -2.70805e-05)
     feature  : max:(-1.75692e-05 0.002 -0.000575249) avg:(6.12701e-07 4.88953e-05 -1.6549e-06)
Feature analysis : total master points:4833 attraction to :
    feature point   : 15
    feature edge    : 427
    nearest surface : 0
    rest            : 4391

--> FOAM Warning : Displacement (-4.63788e-06 -6.79151e-06 9.41383e-08) at mesh point 3189 coord (0.0147623 0.00499406 -7.80583e-05) points through the surrounding patch faces
Smoothing displacement ...
Iteration 0
Iteration 10
Iteration 20
Displacement smoothed in = 0.14 s


Moving mesh ...

Iteration 0
Moving mesh using displacement scaling : min:1  max:1
Checking faces in error :
    non-orthogonality > 65  degrees                        : 0
    faces with face pyramid volume < 1e-13                 : 0
    faces with face-decomposition tet quality < -1e-30      : 1
    faces with concavity > 80  degrees                     : 0
    faces with skewness > 4   (internal) or 20  (boundary) : 0
    faces with interpolation weights (0..1)  < 0.05        : 0
    faces with volume ratio of neighbour cells < 0.01      : 0
    faces with face twist < 0.05                           : 0
    faces on cells with determinant < 0.001                : 0

Iteration 1
Moving mesh using displacement scaling : min:0.75  max:1
Checking faces in error :
    non-orthogonality > 65  degrees                        : 0
    faces with face pyramid volume < 1e-13                 : 0
    faces with face-decomposition tet quality < -1e-30      : 1
    faces with concavity > 80  degrees                     : 0
    faces with skewness > 4   (internal) or 20  (boundary) : 0
    faces with interpolation weights (0..1)  < 0.05        : 0
    faces with volume ratio of neighbour cells < 0.01      : 0
    faces with face twist < 0.05                           : 0
    faces on cells with determinant < 0.001                : 0

Iteration 2
Moving mesh using displacement scaling : min:0.5625  max:1
Checking faces in error :
    non-orthogonality > 65  degrees                        : 0
    faces with face pyramid volume < 1e-13                 : 0
    faces with face-decomposition tet quality < -1e-30      : 1
    faces with concavity > 80  degrees                     : 0
    faces with skewness > 4   (internal) or 20  (boundary) : 0
    faces with interpolation weights (0..1)  < 0.05        : 0
    faces with volume ratio of neighbour cells < 0.01      : 0
    faces with face twist < 0.05                           : 0
    faces on cells with determinant < 0.001                : 0

Iteration 3
Moving mesh using displacement scaling : min:0.421875  max:1
Checking faces in error :
    non-orthogonality > 65  degrees                        : 0
    faces with face pyramid volume < 1e-13                 : 0
    faces with face-decomposition tet quality < -1e-30      : 0
    faces with concavity > 80  degrees                     : 0
    faces with skewness > 4   (internal) or 20  (boundary) : 0
    faces with interpolation weights (0..1)  < 0.05        : 0
    faces with volume ratio of neighbour cells < 0.01      : 0
    faces with face twist < 0.05                           : 0
    faces on cells with determinant < 0.001                : 0
Successfully moved mesh
Moved mesh in = 0.31 s



Morph iteration 3
-----------------
Calculating patchDisplacement as distance to nearest surface point ...
Wanted displacement : average:0.000214853 min:6.28535e-08 max:0.000950595
Calculated surface displacement in = 0.03 s


Detecting near surfaces ...
Overriding nearest with intersection of close gaps at 2427 out of 4833 points.
Overriding displacement on features :
   implicit features    : false
   explicit features    : true
   multi-patch features : false

Detected 34 baffle edges out of 9469 edges.
Initially selected 745 points out of 4833 for reverse attraction.
Selected 1557 points out of 4833 for reverse attraction.
Stringing feature edges : changed 31 points
Stringing feature edges : changed 0 points
Attraction:
     linear   : max:(-0.0007955 -0.000519734 -2.61978e-05) avg:(3.04297e-07 -2.75672e-06 -2.38994e-05)
     feature  : max:(-2.14072e-05 0.002 -0.000460158) avg:(6.97062e-07 4.81188e-05 -1.74077e-06)
Feature analysis : total master points:4833 attraction to :
    feature point   : 15
    feature edge    : 424
    nearest surface : 0
    rest            : 4394

--> FOAM Warning : Displacement (-1.13771e-07 9.20686e-05 -3.89188e-08) at mesh point 3819 coord (7.44534e-08 0.048412 -0.0145114) points through the surrounding patch faces
Smoothing displacement ...
Iteration 0
Iteration 10
Iteration 20
Displacement smoothed in = 0.14 s


Moving mesh ...

Iteration 0
Moving mesh using displacement scaling : min:1  max:1
Checking faces in error :
    non-orthogonality > 65  degrees                        : 0
    faces with face pyramid volume < 1e-13                 : 0
    faces with face-decomposition tet quality < -1e-30      : 1
    faces with concavity > 80  degrees                     : 0
    faces with skewness > 4   (internal) or 20  (boundary) : 0
    faces with interpolation weights (0..1)  < 0.05        : 0
    faces with volume ratio of neighbour cells < 0.01      : 0
    faces with face twist < 0.05                           : 0
    faces on cells with determinant < 0.001                : 0

Iteration 1
Moving mesh using displacement scaling : min:0.75  max:1
Checking faces in error :
    non-orthogonality > 65  degrees                        : 0
    faces with face pyramid volume < 1e-13                 : 0
    faces with face-decomposition tet quality < -1e-30      : 1
    faces with concavity > 80  degrees                     : 0
    faces with skewness > 4   (internal) or 20  (boundary) : 0
    faces with interpolation weights (0..1)  < 0.05        : 0
    faces with volume ratio of neighbour cells < 0.01      : 0
    faces with face twist < 0.05                           : 0
    faces on cells with determinant < 0.001                : 0

Iteration 2
Moving mesh using displacement scaling : min:0.5625  max:1
Checking faces in error :
    non-orthogonality > 65  degrees                        : 0
    faces with face pyramid volume < 1e-13                 : 0
    faces with face-decomposition tet quality < -1e-30      : 1
    faces with concavity > 80  degrees                     : 0
    faces with skewness > 4   (internal) or 20  (boundary) : 0
    faces with interpolation weights (0..1)  < 0.05        : 0
    faces with volume ratio of neighbour cells < 0.01      : 0
    faces with face twist < 0.05                           : 0
    faces on cells with determinant < 0.001                : 0

Iteration 3
Moving mesh using displacement scaling : min:0.421875  max:1
Checking faces in error :
    non-orthogonality > 65  degrees                        : 0
    faces with face pyramid volume < 1e-13                 : 0
    faces with face-decomposition tet quality < -1e-30      : 1
    faces with concavity > 80  degrees                     : 0
    faces with skewness > 4   (internal) or 20  (boundary) : 0
    faces with interpolation weights (0..1)  < 0.05        : 0
    faces with volume ratio of neighbour cells < 0.01      : 0
    faces with face twist < 0.05                           : 0
    faces on cells with determinant < 0.001                : 0

Iteration 4
Moving mesh using displacement scaling : min:0.316406  max:1
Checking faces in error :
    non-orthogonality > 65  degrees                        : 0
    faces with face pyramid volume < 1e-13                 : 0
    faces with face-decomposition tet quality < -1e-30      : 1
    faces with concavity > 80  degrees                     : 0
    faces with skewness > 4   (internal) or 20  (boundary) : 0
    faces with interpolation weights (0..1)  < 0.05        : 0
    faces with volume ratio of neighbour cells < 0.01      : 0
    faces with face twist < 0.05                           : 0
    faces on cells with determinant < 0.001                : 0

Iteration 5
Displacement scaling for error reduction set to 0.
Moving mesh using displacement scaling : min:0.237305  max:1
Checking faces in error :
    non-orthogonality > 65  degrees                        : 0
    faces with face pyramid volume < 1e-13                 : 0
    faces with face-decomposition tet quality < -1e-30      : 1
    faces with concavity > 80  degrees                     : 0
    faces with skewness > 4   (internal) or 20  (boundary) : 0
    faces with interpolation weights (0..1)  < 0.05        : 0
    faces with volume ratio of neighbour cells < 0.01      : 0
    faces with face twist < 0.05                           : 0
    faces on cells with determinant < 0.001                : 0

Iteration 6
Moving mesh using displacement scaling : min:0  max:1
Checking faces in error :
    non-orthogonality > 65  degrees                        : 0
    faces with face pyramid volume < 1e-13                 : 0
    faces with face-decomposition tet quality < -1e-30      : 0
    faces with concavity > 80  degrees                     : 0
    faces with skewness > 4   (internal) or 20  (boundary) : 0
    faces with interpolation weights (0..1)  < 0.05        : 0
    faces with volume ratio of neighbour cells < 0.01      : 0
    faces with face twist < 0.05                           : 0
    faces on cells with determinant < 0.001                : 0
Successfully moved mesh
Moved mesh in = 0.48 s



Morph iteration 4
-----------------
Calculating patchDisplacement as distance to nearest surface point ...
Wanted displacement : average:0.000179606 min:3.27281e-09 max:0.000823792
Calculated surface displacement in = 0.04 s


Detecting near surfaces ...
Overriding nearest with intersection of close gaps at 2612 out of 4833 points.
Overriding displacement on features :
   implicit features    : false
   explicit features    : true
   multi-patch features : false

Detected 41 baffle edges out of 9469 edges.
Initially selected 741 points out of 4833 for reverse attraction.
Selected 1557 points out of 4833 for reverse attraction.
Stringing feature edges : changed 33 points
Stringing feature edges : changed 0 points
Attraction:
     linear   : max:(-0.000689386 -0.000450406 -2.27032e-05) avg:(6.38859e-09 -2.2059e-06 -1.64591e-05)
     feature  : max:(-2.44485e-05 0.002 -0.000337388) avg:(3.85761e-07 4.81182e-05 -1.31845e-06)
Feature analysis : total master points:4833 attraction to :
    feature point   : 15
    feature edge    : 428
    nearest surface : 0
    rest            : 4390

--> FOAM Warning : Displacement (-4.41248e-06 0.000147164 7.13682e-07) at mesh point 7202 coord (-0.00152757 0.0485143 -0.0144438) points through the surrounding patch faces
Smoothing displacement ...
Iteration 0
Iteration 10
Iteration 20
Displacement smoothed in = 0.13 s


Moving mesh ...

Iteration 0
Moving mesh using displacement scaling : min:1  max:1
Checking faces in error :
    non-orthogonality > 65  degrees                        : 0
    faces with face pyramid volume < 1e-13                 : 0
    faces with face-decomposition tet quality < -1e-30      : 1
    faces with concavity > 80  degrees                     : 0
    faces with skewness > 4   (internal) or 20  (boundary) : 0
    faces with interpolation weights (0..1)  < 0.05        : 0
    faces with volume ratio of neighbour cells < 0.01      : 0
    faces with face twist < 0.05                           : 0
    faces on cells with determinant < 0.001                : 0

Iteration 1
Moving mesh using displacement scaling : min:0.75  max:1
Checking faces in error :
    non-orthogonality > 65  degrees                        : 0
    faces with face pyramid volume < 1e-13                 : 0
    faces with face-decomposition tet quality < -1e-30      : 1
    faces with concavity > 80  degrees                     : 0
    faces with skewness > 4   (internal) or 20  (boundary) : 0
    faces with interpolation weights (0..1)  < 0.05        : 0
    faces with volume ratio of neighbour cells < 0.01      : 0
    faces with face twist < 0.05                           : 0
    faces on cells with determinant < 0.001                : 0

Iteration 2
Moving mesh using displacement scaling : min:0.5625  max:1
Checking faces in error :
    non-orthogonality > 65  degrees                        : 0
    faces with face pyramid volume < 1e-13                 : 0
    faces with face-decomposition tet quality < -1e-30      : 1
    faces with concavity > 80  degrees                     : 0
    faces with skewness > 4   (internal) or 20  (boundary) : 0
    faces with interpolation weights (0..1)  < 0.05        : 0
    faces with volume ratio of neighbour cells < 0.01      : 0
    faces with face twist < 0.05                           : 0
    faces on cells with determinant < 0.001                : 0

Iteration 3
Moving mesh using displacement scaling : min:0.421875  max:1
Checking faces in error :
    non-orthogonality > 65  degrees                        : 0
    faces with face pyramid volume < 1e-13                 : 0
    faces with face-decomposition tet quality < -1e-30      : 1
    faces with concavity > 80  degrees                     : 0
    faces with skewness > 4   (internal) or 20  (boundary) : 0
    faces with interpolation weights (0..1)  < 0.05        : 0
    faces with volume ratio of neighbour cells < 0.01      : 0
    faces with face twist < 0.05                           : 0
    faces on cells with determinant < 0.001                : 0

Iteration 4
Moving mesh using displacement scaling : min:0.316406  max:1
Checking faces in error :
    non-orthogonality > 65  degrees                        : 0
    faces with face pyramid volume < 1e-13                 : 0
    faces with face-decomposition tet quality < -1e-30      : 1
    faces with concavity > 80  degrees                     : 0
    faces with skewness > 4   (internal) or 20  (boundary) : 0
    faces with interpolation weights (0..1)  < 0.05        : 0
    faces with volume ratio of neighbour cells < 0.01      : 0
    faces with face twist < 0.05                           : 0
    faces on cells with determinant < 0.001                : 0

Iteration 5
Displacement scaling for error reduction set to 0.
Moving mesh using displacement scaling : min:0.237305  max:1
Checking faces in error :
    non-orthogonality > 65  degrees                        : 0
    faces with face pyramid volume < 1e-13                 : 0
    faces with face-decomposition tet quality < -1e-30      : 1
    faces with concavity > 80  degrees                     : 0
    faces with skewness > 4   (internal) or 20  (boundary) : 0
    faces with interpolation weights (0..1)  < 0.05        : 0
    faces with volume ratio of neighbour cells < 0.01      : 0
    faces with face twist < 0.05                           : 0
    faces on cells with determinant < 0.001                : 0

Iteration 6
Moving mesh using displacement scaling : min:0  max:1
Checking faces in error :
    non-orthogonality > 65  degrees                        : 0
    faces with face pyramid volume < 1e-13                 : 0
    faces with face-decomposition tet quality < -1e-30      : 0
    faces with concavity > 80  degrees                     : 0
    faces with skewness > 4   (internal) or 20  (boundary) : 0
    faces with interpolation weights (0..1)  < 0.05        : 0
    faces with volume ratio of neighbour cells < 0.01      : 0
    faces with face twist < 0.05                           : 0
    faces on cells with determinant < 0.001                : 0
Successfully moved mesh
Moved mesh in = 0.49 s



Morph iteration 5
-----------------
Calculating patchDisplacement as distance to nearest surface point ...
Wanted displacement : average:0.000143588 min:8.35931e-08 max:0.000679405
Calculated surface displacement in = 0.03 s


Detecting near surfaces ...
Overriding nearest with intersection of close gaps at 2707 out of 4833 points.
Overriding displacement on features :
   implicit features    : false
   explicit features    : true
   multi-patch features : false

Detected 43 baffle edges out of 9469 edges.
Initially selected 736 points out of 4833 for reverse attraction.
Selected 1559 points out of 4833 for reverse attraction.
Stringing feature edges : changed 28 points
Stringing feature edges : changed 0 points
Attraction:
     linear   : max:(-0.000917367 -0.000644291 -0.000398591) avg:(-2.8299e-07 -1.91393e-06 -1.13148e-05)
     feature  : max:(-2.57356e-05 0.002 -0.000224831) avg:(2.4565e-07 4.65155e-05 -1.19618e-06)
Feature analysis : total master points:4833 attraction to :
    feature point   : 16
    feature edge    : 428
    nearest surface : 0
    rest            : 4389

--> FOAM Warning : Displacement (-4.72858e-06 -1.59792e-05 6.56669e-06) at mesh point 7176 coord (-0.00153259 0.0049733 -0.0144817) points through the surrounding patch faces
Smoothing displacement ...
Iteration 0
Iteration 10
Iteration 20
Displacement smoothed in = 0.14 s


Moving mesh ...

Iteration 0
Moving mesh using displacement scaling : min:1  max:1
Checking faces in error :
    non-orthogonality > 65  degrees                        : 0
    faces with face pyramid volume < 1e-13                 : 0
    faces with face-decomposition tet quality < -1e-30      : 1
    faces with concavity > 80  degrees                     : 0
    faces with skewness > 4   (internal) or 20  (boundary) : 0
    faces with interpolation weights (0..1)  < 0.05        : 0
    faces with volume ratio of neighbour cells < 0.01      : 0
    faces with face twist < 0.05                           : 0
    faces on cells with determinant < 0.001                : 0

Iteration 1
Moving mesh using displacement scaling : min:0.75  max:1
Checking faces in error :
    non-orthogonality > 65  degrees                        : 0
    faces with face pyramid volume < 1e-13                 : 0
    faces with face-decomposition tet quality < -1e-30      : 1
    faces with concavity > 80  degrees                     : 0
    faces with skewness > 4   (internal) or 20  (boundary) : 0
    faces with interpolation weights (0..1)  < 0.05        : 0
    faces with volume ratio of neighbour cells < 0.01      : 0
    faces with face twist < 0.05                           : 0
    faces on cells with determinant < 0.001                : 0

Iteration 2
Moving mesh using displacement scaling : min:0.5625  max:1
Checking faces in error :
    non-orthogonality > 65  degrees                        : 0
    faces with face pyramid volume < 1e-13                 : 0
    faces with face-decomposition tet quality < -1e-30      : 1
    faces with concavity > 80  degrees                     : 0
    faces with skewness > 4   (internal) or 20  (boundary) : 0
    faces with interpolation weights (0..1)  < 0.05        : 0
    faces with volume ratio of neighbour cells < 0.01      : 0
    faces with face twist < 0.05                           : 0
    faces on cells with determinant < 0.001                : 0

Iteration 3
Moving mesh using displacement scaling : min:0.421875  max:1
Checking faces in error :
    non-orthogonality > 65  degrees                        : 0
    faces with face pyramid volume < 1e-13                 : 0
    faces with face-decomposition tet quality < -1e-30      : 1
    faces with concavity > 80  degrees                     : 0
    faces with skewness > 4   (internal) or 20  (boundary) : 0
    faces with interpolation weights (0..1)  < 0.05        : 0
    faces with volume ratio of neighbour cells < 0.01      : 0
    faces with face twist < 0.05                           : 0
    faces on cells with determinant < 0.001                : 0

Iteration 4
Moving mesh using displacement scaling : min:0.316406  max:1
Checking faces in error :
    non-orthogonality > 65  degrees                        : 0
    faces with face pyramid volume < 1e-13                 : 0
    faces with face-decomposition tet quality < -1e-30      : 1
    faces with concavity > 80  degrees                     : 0
    faces with skewness > 4   (internal) or 20  (boundary) : 0
    faces with interpolation weights (0..1)  < 0.05        : 0
    faces with volume ratio of neighbour cells < 0.01      : 0
    faces with face twist < 0.05                           : 0
    faces on cells with determinant < 0.001                : 0

Iteration 5
Displacement scaling for error reduction set to 0.
Moving mesh using displacement scaling : min:0.237305  max:1
Checking faces in error :
    non-orthogonality > 65  degrees                        : 0
    faces with face pyramid volume < 1e-13                 : 0
    faces with face-decomposition tet quality < -1e-30      : 1
    faces with concavity > 80  degrees                     : 0
    faces with skewness > 4   (internal) or 20  (boundary) : 0
    faces with interpolation weights (0..1)  < 0.05        : 0
    faces with volume ratio of neighbour cells < 0.01      : 0
    faces with face twist < 0.05                           : 0
    faces on cells with determinant < 0.001                : 0

Iteration 6
Moving mesh using displacement scaling : min:0  max:1
Checking faces in error :
    non-orthogonality > 65  degrees                        : 0
    faces with face pyramid volume < 1e-13                 : 0
    faces with face-decomposition tet quality < -1e-30      : 0
    faces with concavity > 80  degrees                     : 0
    faces with skewness > 4   (internal) or 20  (boundary) : 0
    faces with interpolation weights (0..1)  < 0.05        : 0
    faces with volume ratio of neighbour cells < 0.01      : 0
    faces with face twist < 0.05                           : 0
    faces on cells with determinant < 0.001                : 0
Successfully moved mesh
Moved mesh in = 0.45 s



Morph iteration 6
-----------------
Calculating patchDisplacement as distance to nearest surface point ...
Wanted displacement : average:0.000108913 min:2.53332e-08 max:0.000528831
Calculated surface displacement in = 0.05 s


Detecting near surfaces ...
Overriding nearest with intersection of close gaps at 2757 out of 4833 points.
Overriding displacement on features :
   implicit features    : false
   explicit features    : true
   multi-patch features : false

Detected 47 baffle edges out of 9469 edges.
Initially selected 732 points out of 4833 for reverse attraction.
Selected 1547 points out of 4833 for reverse attraction.
Stringing feature edges : changed 30 points
Stringing feature edges : changed 0 points
Attraction:
     linear   : max:(-0.000696896 -0.000485122 -0.000333331) avg:(-2.92218e-07 -1.74893e-06 -7.10541e-06)
     feature  : max:(-2.48102e-05 0.002 -0.000134758) avg:(1.35373e-07 4.49873e-05 -7.55159e-07)
Feature analysis : total master points:4833 attraction to :
    feature point   : 18
    feature edge    : 424
    nearest surface : 0
    rest            : 4391

--> FOAM Warning : Displacement (-7.06856e-07 -5.73366e-05 1.02287e-05) at mesh point 2343 coord (-0.00151183 0.00167371 -0.0144596) points through the surrounding patch faces
Smoothing displacement ...
Iteration 0
Iteration 10
Iteration 20
Displacement smoothed in = 0.12 s


Moving mesh ...

Iteration 0
Moving mesh using displacement scaling : min:1  max:1
Checking faces in error :
    non-orthogonality > 65  degrees                        : 0
    faces with face pyramid volume < 1e-13                 : 0
    faces with face-decomposition tet quality < -1e-30      : 2
    faces with concavity > 80  degrees                     : 0
    faces with skewness > 4   (internal) or 20  (boundary) : 0
    faces with interpolation weights (0..1)  < 0.05        : 0
    faces with volume ratio of neighbour cells < 0.01      : 0
    faces with face twist < 0.05                           : 0
    faces on cells with determinant < 0.001                : 0

Iteration 1
Moving mesh using displacement scaling : min:0.75  max:1
Checking faces in error :
    non-orthogonality > 65  degrees                        : 0
    faces with face pyramid volume < 1e-13                 : 0
    faces with face-decomposition tet quality < -1e-30      : 2
    faces with concavity > 80  degrees                     : 0
    faces with skewness > 4   (internal) or 20  (boundary) : 0
    faces with interpolation weights (0..1)  < 0.05        : 0
    faces with volume ratio of neighbour cells < 0.01      : 0
    faces with face twist < 0.05                           : 0
    faces on cells with determinant < 0.001                : 0

Iteration 2
Moving mesh using displacement scaling : min:0.5625  max:1
Checking faces in error :
    non-orthogonality > 65  degrees                        : 0
    faces with face pyramid volume < 1e-13                 : 0
    faces with face-decomposition tet quality < -1e-30      : 2
    faces with concavity > 80  degrees                     : 0
    faces with skewness > 4   (internal) or 20  (boundary) : 0
    faces with interpolation weights (0..1)  < 0.05        : 0
    faces with volume ratio of neighbour cells < 0.01      : 0
    faces with face twist < 0.05                           : 0
    faces on cells with determinant < 0.001                : 0

Iteration 3
Moving mesh using displacement scaling : min:0.421875  max:1
Checking faces in error :
    non-orthogonality > 65  degrees                        : 0
    faces with face pyramid volume < 1e-13                 : 0
    faces with face-decomposition tet quality < -1e-30      : 1
    faces with concavity > 80  degrees                     : 0
    faces with skewness > 4   (internal) or 20  (boundary) : 0
    faces with interpolation weights (0..1)  < 0.05        : 0
    faces with volume ratio of neighbour cells < 0.01      : 0
    faces with face twist < 0.05                           : 0
    faces on cells with determinant < 0.001                : 0

Iteration 4
Moving mesh using displacement scaling : min:0.316406  max:1
Checking faces in error :
    non-orthogonality > 65  degrees                        : 0
    faces with face pyramid volume < 1e-13                 : 0
    faces with face-decomposition tet quality < -1e-30      : 1
    faces with concavity > 80  degrees                     : 0
    faces with skewness > 4   (internal) or 20  (boundary) : 0
    faces with interpolation weights (0..1)  < 0.05        : 0
    faces with volume ratio of neighbour cells < 0.01      : 0
    faces with face twist < 0.05                           : 0
    faces on cells with determinant < 0.001                : 0

Iteration 5
Displacement scaling for error reduction set to 0.
Moving mesh using displacement scaling : min:0.237305  max:1
Checking faces in error :
    non-orthogonality > 65  degrees                        : 0
    faces with face pyramid volume < 1e-13                 : 0
    faces with face-decomposition tet quality < -1e-30      : 1
    faces with concavity > 80  degrees                     : 0
    faces with skewness > 4   (internal) or 20  (boundary) : 0
    faces with interpolation weights (0..1)  < 0.05        : 0
    faces with volume ratio of neighbour cells < 0.01      : 0
    faces with face twist < 0.05                           : 0
    faces on cells with determinant < 0.001                : 0

Iteration 6
Moving mesh using displacement scaling : min:0  max:1
Checking faces in error :
    non-orthogonality > 65  degrees                        : 0
    faces with face pyramid volume < 1e-13                 : 0
    faces with face-decomposition tet quality < -1e-30      : 0
    faces with concavity > 80  degrees                     : 0
    faces with skewness > 4   (internal) or 20  (boundary) : 0
    faces with interpolation weights (0..1)  < 0.05        : 0
    faces with volume ratio of neighbour cells < 0.01      : 0
    faces with face twist < 0.05                           : 0
    faces on cells with determinant < 0.001                : 0
Successfully moved mesh
Moved mesh in = 0.5 s



Morph iteration 7
-----------------
Calculating patchDisplacement as distance to nearest surface point ...
Wanted displacement : average:7.8747e-05 min:2.34464e-08 max:0.000460138
Calculated surface displacement in = 0.03 s


Detecting near surfaces ...
Overriding nearest with intersection of close gaps at 2787 out of 4833 points.
Overriding displacement on features :
   implicit features    : false
   explicit features    : true
   multi-patch features : false

Detected 49 baffle edges out of 9469 edges.
Initially selected 773 points out of 4833 for reverse attraction.
Selected 1569 points out of 4833 for reverse attraction.
Stringing feature edges : changed 29 points
Stringing feature edges : changed 1 points
Stringing feature edges : changed 0 points
Attraction:
     linear   : max:(-0.000270462 0 0.000372259) avg:(-1.37055e-07 -1.39452e-06 -4.31014e-06)
     feature  : max:(7.05866e-05 0.002 -5.02132e-05) avg:(2.82741e-07 4.14653e-05 -2.05814e-07)
Feature analysis : total master points:4833 attraction to :
    feature point   : 18
    feature edge    : 435
    nearest surface : 0
    rest            : 4380

--> FOAM Warning : Displacement (-2.66677e-06 -4.7947e-05 4.58233e-06) at mesh point 1599 coord (-0.0027145 0.00161726 -0.0142378) points through the surrounding patch faces
Smoothing displacement ...
Iteration 0
Iteration 10
Iteration 20
Displacement smoothed in = 0.14 s


Moving mesh ...

Iteration 0
Moving mesh using displacement scaling : min:1  max:1
Checking faces in error :
    non-orthogonality > 65  degrees                        : 0
    faces with face pyramid volume < 1e-13                 : 0
    faces with face-decomposition tet quality < -1e-30      : 2
    faces with concavity > 80  degrees                     : 0
    faces with skewness > 4   (internal) or 20  (boundary) : 0
    faces with interpolation weights (0..1)  < 0.05        : 0
    faces with volume ratio of neighbour cells < 0.01      : 0
    faces with face twist < 0.05                           : 1
    faces on cells with determinant < 0.001                : 0

Iteration 1
Moving mesh using displacement scaling : min:0.75  max:1
Checking faces in error :
    non-orthogonality > 65  degrees                        : 0
    faces with face pyramid volume < 1e-13                 : 0
    faces with face-decomposition tet quality < -1e-30      : 2
    faces with concavity > 80  degrees                     : 0
    faces with skewness > 4   (internal) or 20  (boundary) : 0
    faces with interpolation weights (0..1)  < 0.05        : 0
    faces with volume ratio of neighbour cells < 0.01      : 0
    faces with face twist < 0.05                           : 0
    faces on cells with determinant < 0.001                : 0

Iteration 2
Moving mesh using displacement scaling : min:0.5625  max:1
Checking faces in error :
    non-orthogonality > 65  degrees                        : 0
    faces with face pyramid volume < 1e-13                 : 0
    faces with face-decomposition tet quality < -1e-30      : 2
    faces with concavity > 80  degrees                     : 0
    faces with skewness > 4   (internal) or 20  (boundary) : 0
    faces with interpolation weights (0..1)  < 0.05        : 0
    faces with volume ratio of neighbour cells < 0.01      : 0
    faces with face twist < 0.05                           : 0
    faces on cells with determinant < 0.001                : 0

Iteration 3
Moving mesh using displacement scaling : min:0.421875  max:1
Checking faces in error :
    non-orthogonality > 65  degrees                        : 0
    faces with face pyramid volume < 1e-13                 : 0
    faces with face-decomposition tet quality < -1e-30      : 2
    faces with concavity > 80  degrees                     : 0
    faces with skewness > 4   (internal) or 20  (boundary) : 0
    faces with interpolation weights (0..1)  < 0.05        : 0
    faces with volume ratio of neighbour cells < 0.01      : 0
    faces with face twist < 0.05                           : 0
    faces on cells with determinant < 0.001                : 0

Iteration 4
Moving mesh using displacement scaling : min:0.316406  max:1
Checking faces in error :
    non-orthogonality > 65  degrees                        : 0
    faces with face pyramid volume < 1e-13                 : 0
    faces with face-decomposition tet quality < -1e-30      : 2
    faces with concavity > 80  degrees                     : 0
    faces with skewness > 4   (internal) or 20  (boundary) : 0
    faces with interpolation weights (0..1)  < 0.05        : 0
    faces with volume ratio of neighbour cells < 0.01      : 0
    faces with face twist < 0.05                           : 0
    faces on cells with determinant < 0.001                : 0

Iteration 5
Displacement scaling for error reduction set to 0.
Moving mesh using displacement scaling : min:0.237305  max:1
Checking faces in error :
    non-orthogonality > 65  degrees                        : 0
    faces with face pyramid volume < 1e-13                 : 0
    faces with face-decomposition tet quality < -1e-30      : 2
    faces with concavity > 80  degrees                     : 0
    faces with skewness > 4   (internal) or 20  (boundary) : 0
    faces with interpolation weights (0..1)  < 0.05        : 0
    faces with volume ratio of neighbour cells < 0.01      : 0
    faces with face twist < 0.05                           : 0
    faces on cells with determinant < 0.001                : 0

Iteration 6
Moving mesh using displacement scaling : min:0  max:1
Checking faces in error :
    non-orthogonality > 65  degrees                        : 0
    faces with face pyramid volume < 1e-13                 : 0
    faces with face-decomposition tet quality < -1e-30      : 0
    faces with concavity > 80  degrees                     : 0
    faces with skewness > 4   (internal) or 20  (boundary) : 0
    faces with interpolation weights (0..1)  < 0.05        : 0
    faces with volume ratio of neighbour cells < 0.01      : 0
    faces with face twist < 0.05                           : 0
    faces on cells with determinant < 0.001                : 0
Successfully moved mesh
Moved mesh in = 0.54 s



Morph iteration 8
-----------------
Calculating patchDisplacement as distance to nearest surface point ...
Wanted displacement : average:5.47131e-05 min:4.78335e-09 max:0.000429901
Calculated surface displacement in = 0.03 s


Detecting near surfaces ...
Overriding nearest with intersection of close gaps at 2824 out of 4833 points.
Overriding displacement on features :
   implicit features    : false
   explicit features    : true
   multi-patch features : false

Detected 53 baffle edges out of 9469 edges.
Initially selected 781 points out of 4833 for reverse attraction.
Selected 1565 points out of 4833 for reverse attraction.
Stringing feature edges : changed 27 points
Stringing feature edges : changed 3 points
Stringing feature edges : changed 6 points
Stringing feature edges : changed 0 points
Attraction:
     linear   : max:(-0.00071209 -0.000364421 -0.000472593) avg:(-9.40432e-08 -1.73544e-06 -2.57758e-06)
     feature  : max:(4.28275e-05 0.002 -3.99395e-05) avg:(-1.16923e-07 4.31634e-05 -1.61207e-07)
Feature analysis : total master points:4833 attraction to :
    feature point   : 21
    feature edge    : 446
    nearest surface : 0
    rest            : 4366

--> FOAM Warning : Displacement (-9.53679e-07 -3.94901e-05 6.13065e-06) at mesh point 1599 coord (-0.00271717 0.00156932 -0.0142332) points through the surrounding patch faces
Smoothing displacement ...
Iteration 0
Iteration 10
Iteration 20
Displacement smoothed in = 0.14 s


Moving mesh ...

Iteration 0
Moving mesh using displacement scaling : min:1  max:1
Checking faces in error :
    non-orthogonality > 65  degrees                        : 4
    faces with face pyramid volume < 1e-13                 : 68
    faces with face-decomposition tet quality < -1e-30      : 82
    faces with concavity > 80  degrees                     : 0
    faces with skewness > 4   (internal) or 20  (boundary) : 0
    faces with interpolation weights (0..1)  < 0.05        : 0
    faces with volume ratio of neighbour cells < 0.01      : 0
    faces with face twist < 0.05                           : 2
    faces on cells with determinant < 0.001                : 0

Iteration 1
Moving mesh using displacement scaling : min:0.75  max:1
Checking faces in error :
    non-orthogonality > 65  degrees                        : 2
    faces with face pyramid volume < 1e-13                 : 50
    faces with face-decomposition tet quality < -1e-30      : 48
    faces with concavity > 80  degrees                     : 0
    faces with skewness > 4   (internal) or 20  (boundary) : 0
    faces with interpolation weights (0..1)  < 0.05        : 0
    faces with volume ratio of neighbour cells < 0.01      : 2
    faces with face twist < 0.05                           : 3
    faces on cells with determinant < 0.001                : 0

Iteration 2
Moving mesh using displacement scaling : min:0.5625  max:1
Checking faces in error :
    non-orthogonality > 65  degrees                        : 0
    faces with face pyramid volume < 1e-13                 : 21
    faces with face-decomposition tet quality < -1e-30      : 30
    faces with concavity > 80  degrees                     : 0
    faces with skewness > 4   (internal) or 20  (boundary) : 0
    faces with interpolation weights (0..1)  < 0.05        : 0
    faces with volume ratio of neighbour cells < 0.01      : 0
    faces with face twist < 0.05                           : 2
    faces on cells with determinant < 0.001                : 0

Iteration 3
Moving mesh using displacement scaling : min:0.421875  max:1
Checking faces in error :
    non-orthogonality > 65  degrees                        : 0
    faces with face pyramid volume < 1e-13                 : 0
    faces with face-decomposition tet quality < -1e-30      : 11
    faces with concavity > 80  degrees                     : 0
    faces with skewness > 4   (internal) or 20  (boundary) : 0
    faces with interpolation weights (0..1)  < 0.05        : 0
    faces with volume ratio of neighbour cells < 0.01      : 2
    faces with face twist < 0.05                           : 1
    faces on cells with determinant < 0.001                : 0

Iteration 4
Moving mesh using displacement scaling : min:0.316406  max:1
Checking faces in error :
    non-orthogonality > 65  degrees                        : 0
    faces with face pyramid volume < 1e-13                 : 0
    faces with face-decomposition tet quality < -1e-30      : 2
    faces with concavity > 80  degrees                     : 0
    faces with skewness > 4   (internal) or 20  (boundary) : 0
    faces with interpolation weights (0..1)  < 0.05        : 0
    faces with volume ratio of neighbour cells < 0.01      : 0
    faces with face twist < 0.05                           : 1
    faces on cells with determinant < 0.001                : 0

Iteration 5
Displacement scaling for error reduction set to 0.
Moving mesh using displacement scaling : min:0.237305  max:1
Checking faces in error :
    non-orthogonality > 65  degrees                        : 0
    faces with face pyramid volume < 1e-13                 : 0
    faces with face-decomposition tet quality < -1e-30      : 2
    faces with concavity > 80  degrees                     : 0
    faces with skewness > 4   (internal) or 20  (boundary) : 0
    faces with interpolation weights (0..1)  < 0.05        : 0
    faces with volume ratio of neighbour cells < 0.01      : 0
    faces with face twist < 0.05                           : 0
    faces on cells with determinant < 0.001                : 0

Iteration 6
Moving mesh using displacement scaling : min:0  max:1
Checking faces in error :
    non-orthogonality > 65  degrees                        : 0
    faces with face pyramid volume < 1e-13                 : 0
    faces with face-decomposition tet quality < -1e-30      : 0
    faces with concavity > 80  degrees                     : 0
    faces with skewness > 4   (internal) or 20  (boundary) : 0
    faces with interpolation weights (0..1)  < 0.05        : 0
    faces with volume ratio of neighbour cells < 0.01      : 0
    faces with face twist < 0.05                           : 0
    faces on cells with determinant < 0.001                : 0
Successfully moved mesh
Moved mesh in = 0.68 s



Morph iteration 9
-----------------
Calculating patchDisplacement as distance to nearest surface point ...
Wanted displacement : average:3.7211e-05 min:3.14054e-08 max:0.000426702
Calculated surface displacement in = 0.03 s


Detecting near surfaces ...
Overriding nearest with intersection of close gaps at 2845 out of 4833 points.
Overriding displacement on features :
   implicit features    : false
   explicit features    : true
   multi-patch features : false

Detected 51 baffle edges out of 9469 edges.
Initially selected 807 points out of 4833 for reverse attraction.
Selected 1582 points out of 4833 for reverse attraction.
Stringing feature edges : changed 31 points
Stringing feature edges : changed 1 points
Stringing feature edges : changed 2 points
Stringing feature edges : changed 2 points
Stringing feature edges : changed 2 points
Stringing feature edges : changed 1 points
Stringing feature edges : changed 1 points
Stringing feature edges : changed 1 points
Stringing feature edges : changed 1 points
Stringing feature edges : changed 1 points
Stringing feature edges : changed 1 points
Stringing feature edges : changed 0 points
Attraction:
     linear   : max:(-0.000337161 0 -0.000261529) avg:(-4.81433e-08 -2.46862e-06 -1.68443e-06)
     feature  : max:(-1.50851e-06 0.002 -9.5945e-05) avg:(1.85401e-08 4.2769e-05 -5.3753e-07)
Feature analysis : total master points:4833 attraction to :
    feature point   : 20
    feature edge    : 463
    nearest surface : 0
    rest            : 4350

--> FOAM Warning : Displacement (-6.0546e-06 -2.92136e-05 5.31492e-06) at mesh point 1599 coord (-0.00271812 0.00152983 -0.014227) points through the surrounding patch faces
Smoothing displacement ...
Iteration 0
Iteration 10
Iteration 20
Displacement smoothed in = 0.14 s


Moving mesh ...

Iteration 0
Moving mesh using displacement scaling : min:1  max:1
Checking faces in error :
    non-orthogonality > 65  degrees                        : 118
    faces with face pyramid volume < 1e-13                 : 167
    faces with face-decomposition tet quality < -1e-30      : 15
    faces with concavity > 80  degrees                     : 0
    faces with skewness > 4   (internal) or 20  (boundary) : 0
    faces with interpolation weights (0..1)  < 0.05        : 0
    faces with volume ratio of neighbour cells < 0.01      : 6
    faces with face twist < 0.05                           : 2
    faces on cells with determinant < 0.001                : 0

Iteration 1
Moving mesh using displacement scaling : min:0.75  max:1
Checking faces in error :
    non-orthogonality > 65  degrees                        : 68
    faces with face pyramid volume < 1e-13                 : 147
    faces with face-decomposition tet quality < -1e-30      : 52
    faces with concavity > 80  degrees                     : 0
    faces with skewness > 4   (internal) or 20  (boundary) : 0
    faces with interpolation weights (0..1)  < 0.05        : 0
    faces with volume ratio of neighbour cells < 0.01      : 4
    faces with face twist < 0.05                           : 1
    faces on cells with determinant < 0.001                : 0

Iteration 2
Moving mesh using displacement scaling : min:0.5625  max:1
Checking faces in error :
    non-orthogonality > 65  degrees                        : 19
    faces with face pyramid volume < 1e-13                 : 105
    faces with face-decomposition tet quality < -1e-30      : 78
    faces with concavity > 80  degrees                     : 0
    faces with skewness > 4   (internal) or 20  (boundary) : 0
    faces with interpolation weights (0..1)  < 0.05        : 4
    faces with volume ratio of neighbour cells < 0.01      : 2
    faces with face twist < 0.05                           : 3
    faces on cells with determinant < 0.001                : 0

Iteration 3
Moving mesh using displacement scaling : min:0.421875  max:1
Checking faces in error :
    non-orthogonality > 65  degrees                        : 16
    faces with face pyramid volume < 1e-13                 : 87
    faces with face-decomposition tet quality < -1e-30      : 80
    faces with concavity > 80  degrees                     : 0
    faces with skewness > 4   (internal) or 20  (boundary) : 0
    faces with interpolation weights (0..1)  < 0.05        : 0
    faces with volume ratio of neighbour cells < 0.01      : 1
    faces with face twist < 0.05                           : 2
    faces on cells with determinant < 0.001                : 0

Iteration 4
Moving mesh using displacement scaling : min:0.316406  max:1
Checking faces in error :
    non-orthogonality > 65  degrees                        : 3
    faces with face pyramid volume < 1e-13                 : 89
    faces with face-decomposition tet quality < -1e-30      : 81
    faces with concavity > 80  degrees                     : 0
    faces with skewness > 4   (internal) or 20  (boundary) : 0
    faces with interpolation weights (0..1)  < 0.05        : 0
    faces with volume ratio of neighbour cells < 0.01      : 0
    faces with face twist < 0.05                           : 3
    faces on cells with determinant < 0.001                : 0

Iteration 5
Displacement scaling for error reduction set to 0.
Moving mesh using displacement scaling : min:0.237305  max:1
Checking faces in error :
    non-orthogonality > 65  degrees                        : 1
    faces with face pyramid volume < 1e-13                 : 65
    faces with face-decomposition tet quality < -1e-30      : 87
    faces with concavity > 80  degrees                     : 0
    faces with skewness > 4   (internal) or 20  (boundary) : 0
    faces with interpolation weights (0..1)  < 0.05        : 0
    faces with volume ratio of neighbour cells < 0.01      : 0
    faces with face twist < 0.05                           : 4
    faces on cells with determinant < 0.001                : 0

Iteration 6
Moving mesh using displacement scaling : min:0  max:1
Checking faces in error :
    non-orthogonality > 65  degrees                        : 0
    faces with face pyramid volume < 1e-13                 : 0
    faces with face-decomposition tet quality < -1e-30      : 0
    faces with concavity > 80  degrees                     : 0
    faces with skewness > 4   (internal) or 20  (boundary) : 0
    faces with interpolation weights (0..1)  < 0.05        : 0
    faces with volume ratio of neighbour cells < 0.01      : 0
    faces with face twist < 0.05                           : 0
    faces on cells with determinant < 0.001                : 0
Successfully moved mesh
Moved mesh in = 1.06 s



Morph iteration 10
-----------------
Calculating patchDisplacement as distance to nearest surface point ...
Wanted displacement : average:2.56309e-05 min:1.38899e-09 max:0.000520585
Calculated surface displacement in = 0.05 s


Detecting near surfaces ...
Overriding nearest with intersection of close gaps at 2846 out of 4833 points.
Overriding displacement on features :
   implicit features    : false
   explicit features    : true
   multi-patch features : false

Detected 53 baffle edges out of 9469 edges.
Initially selected 807 points out of 4833 for reverse attraction.
Selected 1587 points out of 4833 for reverse attraction.
Stringing feature edges : changed 30 points
Stringing feature edges : changed 0 points
Attraction:
     linear   : max:(0.000268583 -0.000209037 -0.000393923) avg:(5.93223e-09 -3.0311e-06 -1.06163e-06)
     feature  : max:(-1.50851e-06 0.002 -9.59451e-05) avg:(-1.60687e-07 3.85641e-05 -3.1534e-07)
Feature analysis : total master points:4833 attraction to :
    feature point   : 20
    feature edge    : 452
    nearest surface : 0
    rest            : 4361

--> FOAM Warning : Displacement (-1.67633e-06 -1.51766e-05 3.42129e-06) at mesh point 2343 coord (-0.00151199 0.00150534 -0.0144061) points through the surrounding patch faces
Smoothing displacement ...
Iteration 0
Iteration 10
Iteration 20
Displacement smoothed in = 0.14 s


Moving mesh ...

Iteration 0
Moving mesh using displacement scaling : min:1  max:1
Checking faces in error :
    non-orthogonality > 65  degrees                        : 126
    faces with face pyramid volume < 1e-13                 : 198
    faces with face-decomposition tet quality < -1e-30      : 22
    faces with concavity > 80  degrees                     : 0
    faces with skewness > 4   (internal) or 20  (boundary) : 0
    faces with interpolation weights (0..1)  < 0.05        : 2
    faces with volume ratio of neighbour cells < 0.01      : 4
    faces with face twist < 0.05                           : 7
    faces on cells with determinant < 0.001                : 0

Iteration 1
Moving mesh using displacement scaling : min:0.75  max:1
Checking faces in error :
    non-orthogonality > 65  degrees                        : 132
    faces with face pyramid volume < 1e-13                 : 148
    faces with face-decomposition tet quality < -1e-30      : 20
    faces with concavity > 80  degrees                     : 0
    faces with skewness > 4   (internal) or 20  (boundary) : 0
    faces with interpolation weights (0..1)  < 0.05        : 2
    faces with volume ratio of neighbour cells < 0.01      : 6
    faces with face twist < 0.05                           : 4
    faces on cells with determinant < 0.001                : 0

Iteration 2
Moving mesh using displacement scaling : min:0.5625  max:1
Checking faces in error :
    non-orthogonality > 65  degrees                        : 61
    faces with face pyramid volume < 1e-13                 : 139
    faces with face-decomposition tet quality < -1e-30      : 62
    faces with concavity > 80  degrees                     : 0
    faces with skewness > 4   (internal) or 20  (boundary) : 0
    faces with interpolation weights (0..1)  < 0.05        : 3
    faces with volume ratio of neighbour cells < 0.01      : 0
    faces with face twist < 0.05                           : 5
    faces on cells with determinant < 0.001                : 0

Iteration 3
Moving mesh using displacement scaling : min:0.421875  max:1
Checking faces in error :
    non-orthogonality > 65  degrees                        : 19
    faces with face pyramid volume < 1e-13                 : 93
    faces with face-decomposition tet quality < -1e-30      : 81
    faces with concavity > 80  degrees                     : 0
    faces with skewness > 4   (internal) or 20  (boundary) : 0
    faces with interpolation weights (0..1)  < 0.05        : 4
    faces with volume ratio of neighbour cells < 0.01      : 3
    faces with face twist < 0.05                           : 5
    faces on cells with determinant < 0.001                : 0

Iteration 4
Moving mesh using displacement scaling : min:0.316406  max:1
Checking faces in error :
    non-orthogonality > 65  degrees                        : 21
    faces with face pyramid volume < 1e-13                 : 93
    faces with face-decomposition tet quality < -1e-30      : 77
    faces with concavity > 80  degrees                     : 0
    faces with skewness > 4   (internal) or 20  (boundary) : 0
    faces with interpolation weights (0..1)  < 0.05        : 0
    faces with volume ratio of neighbour cells < 0.01      : 2
    faces with face twist < 0.05                           : 4
    faces on cells with determinant < 0.001                : 0

Iteration 5
Displacement scaling for error reduction set to 0.
Moving mesh using displacement scaling : min:0.237305  max:1
Checking faces in error :
    non-orthogonality > 65  degrees                        : 3
    faces with face pyramid volume < 1e-13                 : 83
    faces with face-decomposition tet quality < -1e-30      : 93
    faces with concavity > 80  degrees                     : 0
    faces with skewness > 4   (internal) or 20  (boundary) : 0
    faces with interpolation weights (0..1)  < 0.05        : 0
    faces with volume ratio of neighbour cells < 0.01      : 0
    faces with face twist < 0.05                           : 5
    faces on cells with determinant < 0.001                : 0

Iteration 6
Moving mesh using displacement scaling : min:0  max:1
Checking faces in error :
    non-orthogonality > 65  degrees                        : 0
    faces with face pyramid volume < 1e-13                 : 0
    faces with face-decomposition tet quality < -1e-30      : 0
    faces with concavity > 80  degrees                     : 0
[...]
     linear   : max:(-0.000125672 -0.000198527 -0.000435024) avg:(7.50144e-08 -1.61196e-06 -4.34176e-07)
     feature  : max:(-1.50851e-06 0.002 -9.59451e-05) avg:(-1.0084e-07 3.77393e-05 -3.75558e-07)
Feature analysis : total master points:4833 attraction to :
    feature point   : 23
    feature edge    : 449
    nearest surface : 0
    rest            : 4361

--> FOAM Warning : Displacement (-1.44617e-06 -5.33761e-06 2.01815e-07) at mesh point 0 coord (-0.00261075 6.11621e-06 -0.0142547) points through the surrounding patch faces
Smoothing displacement ...
Iteration 0
Iteration 10
Iteration 20
Displacement smoothed in = 0.14 s


Moving mesh ...

Iteration 0
Moving mesh using displacement scaling : min:1  max:1
Checking faces in error :
    non-orthogonality > 65  degrees                        : 195
    faces with face pyramid volume < 1e-13                 : 247
    faces with face-decomposition tet quality < -1e-30      : 78
    faces with concavity > 80  degrees                     : 0
    faces with skewness > 4   (internal) or 20  (boundary) : 0
    faces with interpolation weights (0..1)  < 0.05        : 4
    faces with volume ratio of neighbour cells < 0.01      : 1
    faces with face twist < 0.05                           : 6
    faces on cells with determinant < 0.001                : 0

Iteration 1
Moving mesh using displacement scaling : min:0.75  max:1
Checking faces in error :
    non-orthogonality > 65  degrees                        : 187
    faces with face pyramid volume < 1e-13                 : 223
    faces with face-decomposition tet quality < -1e-30      : 62
    faces with concavity > 80  degrees                     : 0
    faces with skewness > 4   (internal) or 20  (boundary) : 0
    faces with interpolation weights (0..1)  < 0.05        : 0
    faces with volume ratio of neighbour cells < 0.01      : 6
    faces with face twist < 0.05                           : 7
    faces on cells with determinant < 0.001                : 0

Iteration 2
Moving mesh using displacement scaling : min:0.5625  max:1
Checking faces in error :
    non-orthogonality > 65  degrees                        : 171
    faces with face pyramid volume < 1e-13                 : 176
    faces with face-decomposition tet quality < -1e-30      : 35
    faces with concavity > 80  degrees                     : 0
    faces with skewness > 4   (internal) or 20  (boundary) : 0
    faces with interpolation weights (0..1)  < 0.05        : 4
    faces with volume ratio of neighbour cells < 0.01      : 0
    faces with face twist < 0.05                           : 8
    faces on cells with determinant < 0.001                : 0

Iteration 3
Moving mesh using displacement scaling : min:0.421875  max:1
Checking faces in error :
    non-orthogonality > 65  degrees                        : 144
    faces with face pyramid volume < 1e-13                 : 149
    faces with face-decomposition tet quality < -1e-30      : 55
    faces with concavity > 80  degrees                     : 0
    faces with skewness > 4   (internal) or 20  (boundary) : 0
    faces with interpolation weights (0..1)  < 0.05        : 2
    faces with volume ratio of neighbour cells < 0.01      : 4
    faces with face twist < 0.05                           : 8
    faces on cells with determinant < 0.001                : 0

Iteration 4
Moving mesh using displacement scaling : min:0.316406  max:1
Checking faces in error :
    non-orthogonality > 65  degrees                        : 82
    faces with face pyramid volume < 1e-13                 : 126
    faces with face-decomposition tet quality < -1e-30      : 88
    faces with concavity > 80  degrees                     : 0
    faces with skewness > 4   (internal) or 20  (boundary) : 0
    faces with interpolation weights (0..1)  < 0.05        : 1
    faces with volume ratio of neighbour cells < 0.01      : 0
    faces with face twist < 0.05                           : 9
    faces on cells with determinant < 0.001                : 0

Iteration 5
Displacement scaling for error reduction set to 0.
Moving mesh using displacement scaling : min:0.237305  max:1
Checking faces in error :
    non-orthogonality > 65  degrees                        : 51
    faces with face pyramid volume < 1e-13                 : 93
    faces with face-decomposition tet quality < -1e-30      : 88
    faces with concavity > 80  degrees                     : 0
    faces with skewness > 4   (internal) or 20  (boundary) : 0
    faces with interpolation weights (0..1)  < 0.05        : 0
    faces with volume ratio of neighbour cells < 0.01      : 0
    faces with face twist < 0.05                           : 14
    faces on cells with determinant < 0.001                : 0

Iteration 6
Moving mesh using displacement scaling : min:0  max:1
Checking faces in error :
    non-orthogonality > 65  degrees                        : 7
    faces with face pyramid volume < 1e-13                 : 0
    faces with face-decomposition tet quality < -1e-30      : 0
    faces with concavity > 80  degrees                     : 0
    faces with skewness > 4   (internal) or 20  (boundary) : 0
    faces with interpolation weights (0..1)  < 0.05        : 0
    faces with volume ratio of neighbour cells < 0.01      : 0
    faces with face twist < 0.05                           : 0
    faces on cells with determinant < 0.001                : 0

Iteration 7
Moving mesh using displacement scaling : min:0  max:1
Checking faces in error :
    non-orthogonality > 65  degrees                        : 7
    faces with face pyramid volume < 1e-13                 : 0
    faces with face-decomposition tet quality < -1e-30      : 0
    faces with concavity > 80  degrees                     : 0
    faces with skewness > 4   (internal) or 20  (boundary) : 0
    faces with interpolation weights (0..1)  < 0.05        : 0
    faces with volume ratio of neighbour cells < 0.01      : 0
    faces with face twist < 0.05                           : 0
    faces on cells with determinant < 0.001                : 0

Iteration 8
Moving mesh using displacement scaling : min:0  max:1
Checking faces in error :
    non-orthogonality > 65  degrees                        : 7
    faces with face pyramid volume < 1e-13                 : 0
    faces with face-decomposition tet quality < -1e-30      : 0
    faces with concavity > 80  degrees                     : 0
    faces with skewness > 4   (internal) or 20  (boundary) : 0
    faces with interpolation weights (0..1)  < 0.05        : 0
    faces with volume ratio of neighbour cells < 0.01      : 0
    faces with face twist < 0.05                           : 0
    faces on cells with determinant < 0.001                : 0

Iteration 9
Moving mesh using displacement scaling : min:0  max:1
Checking faces in error :
    non-orthogonality > 65  degrees                        : 7
    faces with face pyramid volume < 1e-13                 : 0
    faces with face-decomposition tet quality < -1e-30      : 0
    faces with concavity > 80  degrees                     : 0
    faces with skewness > 4   (internal) or 20  (boundary) : 0
    faces with interpolation weights (0..1)  < 0.05        : 0
    faces with volume ratio of neighbour cells < 0.01      : 0
    faces with face twist < 0.05                           : 0
    faces on cells with determinant < 0.001                : 0
Moved mesh in = 1.32 s


--> FOAM Warning : 
    From function void Foam::snappySnapDriver::doSnap(const Foam::dictionary&, const Foam::dictionary&, Foam::scalar, Foam::scalar, const Foam::snapParameters&)
    in file snappyHexMeshDriver/snappySnapDriver.C at line 2764
    Did not successfully snap mesh. Continuing to snap to resolve easy
    surfaces but the resulting mesh will not satisfy your quality constraints


Morph iteration 14
-----------------
Calculating patchDisplacement as distance to nearest surface point ...
Wanted displacement : average:7.44664e-06 min:2.71661e-11 max:0.000494421
Calculated surface displacement in = 0.04 s


Detecting near surfaces ...
Overriding nearest with intersection of close gaps at 2851 out of 4833 points.
Overriding displacement on features :
   implicit features    : false
   explicit features    : true
   multi-patch features : false

Detected 50 baffle edges out of 9469 edges.
Initially selected 805 points out of 4833 for reverse attraction.
Selected 1587 points out of 4833 for reverse attraction.
Stringing feature edges : changed 19 points
Stringing feature edges : changed 1 points
Stringing feature edges : changed 0 points
Attraction:
     linear   : max:(-0.000125672 -0.000198527 -0.000435024) avg:(-9.89946e-08 -1.0947e-06 -3.60189e-07)
     feature  : max:(7.92371e-05 0.002 -8.92897e-05) avg:(-2.23209e-07 3.77988e-05 -4.36538e-07)
Feature analysis : total master points:4833 attraction to :
    feature point   : 24
    feature edge    : 449
    nearest surface : 0
    rest            : 4360

--> FOAM Warning : Displacement (-1.64195e-06 -1.50867e-06 2.6317e-07) at mesh point 0 coord (-0.002612 1.50867e-06 -0.0142546) points through the surrounding patch faces
Smoothing displacement ...
Iteration 0
Iteration 10
Iteration 20
Displacement smoothed in = 0.12 s


Moving mesh ...

Iteration 0
Moving mesh using displacement scaling : min:1  max:1
Checking faces in error :
    non-orthogonality > 65  degrees                        : 108
    faces with face pyramid volume < 1e-13                 : 13
    faces with face-decomposition tet quality < -1e-30      : 98
    faces with concavity > 80  degrees                     : 0
    faces with skewness > 4   (internal) or 20  (boundary) : 0
    faces with interpolation weights (0..1)  < 0.05        : 0
    faces with volume ratio of neighbour cells < 0.01      : 2
    faces with face twist < 0.05                           : 7
    faces on cells with determinant < 0.001                : 0

Iteration 1
Moving mesh using displacement scaling : min:0.75  max:1
Checking faces in error :
    non-orthogonality > 65  degrees                        : 89
    faces with face pyramid volume < 1e-13                 : 9
    faces with face-decomposition tet quality < -1e-30      : 75
    faces with concavity > 80  degrees                     : 0
    faces with skewness > 4   (internal) or 20  (boundary) : 0
    faces with interpolation weights (0..1)  < 0.05        : 0
    faces with volume ratio of neighbour cells < 0.01      : 2
    faces with face twist < 0.05                           : 6
    faces on cells with determinant < 0.001                : 0

Iteration 2
Moving mesh using displacement scaling : min:0.5625  max:1
Checking faces in error :
    non-orthogonality > 65  degrees                        : 72
    faces with face pyramid volume < 1e-13                 : 6
    faces with face-decomposition tet quality < -1e-30      : 53
    faces with concavity > 80  degrees                     : 0
    faces with skewness > 4   (internal) or 20  (boundary) : 0
    faces with interpolation weights (0..1)  < 0.05        : 0
    faces with volume ratio of neighbour cells < 0.01      : 2
    faces with face twist < 0.05                           : 7
    faces on cells with determinant < 0.001                : 0

Iteration 3
Moving mesh using displacement scaling : min:0.421875  max:1
Checking faces in error :
    non-orthogonality > 65  degrees                        : 64
    faces with face pyramid volume < 1e-13                 : 4
    faces with face-decomposition tet quality < -1e-30      : 45
    faces with concavity > 80  degrees                     : 0
    faces with skewness > 4   (internal) or 20  (boundary) : 0
    faces with interpolation weights (0..1)  < 0.05        : 0
    faces with volume ratio of neighbour cells < 0.01      : 1
    faces with face twist < 0.05                           : 10
    faces on cells with determinant < 0.001                : 0

Iteration 4
Moving mesh using displacement scaling : min:0.316406  max:1
Checking faces in error :
    non-orthogonality > 65  degrees                        : 60
    faces with face pyramid volume < 1e-13                 : 2
    faces with face-decomposition tet quality < -1e-30      : 36
    faces with concavity > 80  degrees                     : 0
    faces with skewness > 4   (internal) or 20  (boundary) : 0
    faces with interpolation weights (0..1)  < 0.05        : 0
    faces with volume ratio of neighbour cells < 0.01      : 1
    faces with face twist < 0.05                           : 13
    faces on cells with determinant < 0.001                : 0

Iteration 5
Displacement scaling for error reduction set to 0.
Moving mesh using displacement scaling : min:0.237305  max:1
Checking faces in error :
    non-orthogonality > 65  degrees                        : 52
    faces with face pyramid volume < 1e-13                 : 1
    faces with face-decomposition tet quality < -1e-30      : 30
    faces with concavity > 80  degrees                     : 0
    faces with skewness > 4   (internal) or 20  (boundary) : 0
    faces with interpolation weights (0..1)  < 0.05        : 0
    faces with volume ratio of neighbour cells < 0.01      : 0
    faces with face twist < 0.05                           : 16
    faces on cells with determinant < 0.001                : 0

Iteration 6
Moving mesh using displacement scaling : min:0  max:1
Checking faces in error :
    non-orthogonality > 65  degrees                        : 9
    faces with face pyramid volume < 1e-13                 : 0
    faces with face-decomposition tet quality < -1e-30      : 0
    faces with concavity > 80  degrees                     : 0
    faces with skewness > 4   (internal) or 20  (boundary) : 0
    faces with interpolation weights (0..1)  < 0.05        : 0
    faces with volume ratio of neighbour cells < 0.01      : 0
    faces with face twist < 0.05                           : 0
    faces on cells with determinant < 0.001                : 0

Iteration 7
Moving mesh using displacement scaling : min:0  max:1
Checking faces in error :
    non-orthogonality > 65  degrees                        : 9
    faces with face pyramid volume < 1e-13                 : 0
    faces with face-decomposition tet quality < -1e-30      : 0
    faces with concavity > 80  degrees                     : 0
    faces with skewness > 4   (internal) or 20  (boundary) : 0
    faces with interpolation weights (0..1)  < 0.05        : 0
    faces with volume ratio of neighbour cells < 0.01      : 0
    faces with face twist < 0.05                           : 0
    faces on cells with determinant < 0.001                : 0

Iteration 8
Moving mesh using displacement scaling : min:0  max:1
Checking faces in error :
    non-orthogonality > 65  degrees                        : 8
    faces with face pyramid volume < 1e-13                 : 0
    faces with face-decomposition tet quality < -1e-30      : 0
    faces with concavity > 80  degrees                     : 0
    faces with skewness > 4   (internal) or 20  (boundary) : 0
    faces with interpolation weights (0..1)  < 0.05        : 0
    faces with volume ratio of neighbour cells < 0.01      : 0
    faces with face twist < 0.05                           : 0
    faces on cells with determinant < 0.001                : 0

Iteration 9
Moving mesh using displacement scaling : min:0  max:1
Checking faces in error :
    non-orthogonality > 65  degrees                        : 8
    faces with face pyramid volume < 1e-13                 : 0
    faces with face-decomposition tet quality < -1e-30      : 0
    faces with concavity > 80  degrees                     : 0
    faces with skewness > 4   (internal) or 20  (boundary) : 0
    faces with interpolation weights (0..1)  < 0.05        : 0
    faces with volume ratio of neighbour cells < 0.01      : 0
    faces with face twist < 0.05                           : 0
    faces on cells with determinant < 0.001                : 0
Moved mesh in = 1.35 s


--> FOAM Warning : 
    From function void Foam::snappySnapDriver::doSnap(const Foam::dictionary&, const Foam::dictionary&, Foam::scalar, Foam::scalar, const Foam::snapParameters&)
    in file snappyHexMeshDriver/snappySnapDriver.C at line 2764
    Did not successfully snap mesh. Continuing to snap to resolve easy
    surfaces but the resulting mesh will not satisfy your quality constraints

Converting 1240 baffles back into zoned faces ...
Edge intersection testing:
    Number of edges             : 27995
    Number of edges to retest   : 1240
    Number of intersected edges : 4602
Converted baffles in = 0.07 s


Repatching faces according to nearest surface ...
Repatched 0 faces in = 0.03 s


Edge intersection testing:
    Number of edges             : 27995
    Number of edges to retest   : 11118
    Number of intersected edges : 4668
Merging 393 sets of faces.

Edge intersection testing:
    Number of edges             : 27598
    Number of edges to retest   : 1720
    Number of intersected edges : 4271

Undo iteration 0
----------------
Checking faces in error :
    non-orthogonality > 65  degrees                        : 8
    faces with face pyramid volume < 1e-13                 : 0
    faces with face-decomposition tet quality < -1e-30      : 0
    faces with concavity > 80  degrees                     : 0
    faces with skewness > 4   (internal) or 20  (boundary) : 0
    faces with interpolation weights (0..1)  < 0.05        : 0
    faces with volume ratio of neighbour cells < 0.01      : 0
    faces with face twist < 0.05                           : 0
    faces on cells with determinant < 0.001                : 0
Masters that need to be restored:0

Merging all points on surface that
- are used by only two boundary faces and
- make an angle with a cosine of more than 0.866025.

Removing 257 straight edge points ...

Edge intersection testing:
    Number of edges             : 27598
    Number of edges to retest   : 1129
    Number of intersected edges : 4271

Undo iteration 0
----------------
Checking faces in error :
    non-orthogonality > 65  degrees                        : 8
    faces with face pyramid volume < 1e-13                 : 0
    faces with face-decomposition tet quality < -1e-30      : 0
    faces with concavity > 80  degrees                     : 0
    faces with skewness > 4   (internal) or 20  (boundary) : 0
    faces with interpolation weights (0..1)  < 0.05        : 0
    faces with volume ratio of neighbour cells < 0.01      : 0
    faces with face twist < 0.05                           : 0
    faces on cells with determinant < 0.001                : 0
Detected 0 error faces on boundaries that have been merged. These will be restored to their original faces.

Detected 8 error faces in mesh. Restoring neighbours of faces in error.

Edge intersection testing:
    Number of edges             : 27598
    Number of edges to retest   : 464
    Number of intersected edges : 4271

Removing zero-sized patches:
    top type symmetry at position 2
    RF type wall at position 4
    RF_slave type wall at position 5

Snapped mesh : cells:8059  faces:27598  points:11738
Cells per refinement level:
    0	541
    1	5027
    2	2491
Writing mesh to time constant
Wrote mesh in = 0.58 s.
Mesh snapped in = 15.04 s.
Checking final mesh ...
Checking faces in error :
    non-orthogonality > 65  degrees                        : 8
    faces with face pyramid volume < 1e-13                 : 0
    faces with face-decomposition tet quality < -1e-30      : 0
    faces with concavity > 80  degrees                     : 0
    faces with skewness > 4   (internal) or 20  (boundary) : 0
    faces with interpolation weights (0..1)  < 0.05        : 0
    faces with volume ratio of neighbour cells < 0.01      : 0
    faces with face twist < 0.05                           : 0
    faces on cells with determinant < 0.001                : 0
Finished meshing with 8 illegal faces (concave, zero area or negative cell pyramid volume)
Finished meshing in = 24.73 s.
End

