/*---------------------------------------------------------------------------*\
  =========                 |
  \\      /  F ield         | OpenFOAM: The Open Source CFD Toolbox
   \\    /   O peration     | Website:  https://openfoam.org
    \\  /    A nd           | Version:  8
     \\/     M anipulation  |
\*---------------------------------------------------------------------------*/
Build  : 8-1c9b5879390b
Exec   : surfaceFeatures
Date   : Jul 29 2021
Time   : 17:28:47
Host   : "Lukasinator"
PID    : 17941
I/O    : uncollated
Case   : /home/lukas/000_MA/programming_experiments/99_testCase_simpleFoam
nProcs : 1
sigFpe : Enabling floating point exception trapping (FOAM_SIGFPE).
fileModificationChecking : Monitoring run-time modified files using timeStampMaster (fileModificationSkew 10)
allowSystemOperations : Allowing user-supplied system call operations

// * * * * * * * * * * * * * * * * * * * * * * * * * * * * * * * * * * * * * //
Create time

Reading surfaceFeaturesDict

Surface            : "top.stl"


Feature line extraction is only valid on closed manifold surfaces.
Statistics:
Triangles    : 416
Vertices     : 210
Bounding Box : (-0.0149997 0.052 -0.0149966) (0.0149958 0.056 0.0149994)


Constructing feature set from included angle 120
Selecting edges purely based on geometric tests: no

Initial feature set:
    feature points : 0
    feature edges  : 210
    of which
        region edges   : 0
        external edges : 210
        internal edges : 0


Final feature set:
points      : 210
edges       : 210
boundingBox : (-0.0149997 0.052 -0.0149966) (0.0149958 0.056 0.0149994)
point classification :
    convex feature points          :        0
    concave feature points         :        0
    mixed feature points           :        0
    other (non-feature) points     :      210
edge classification :
    external (convex angle) edges  :      210
    internal (concave angle) edges :        0
    flat region edges              :        0
    open edges                     :        0
    multiply connected edges       :        0

Writing extendedFeatureEdgeMesh to "constant/extendedFeatureEdgeMesh/top.extendedFeatureEdgeMesh"

Writing featureEdgeMesh to "constant/triSurface/top.eMesh"

Surface            : "RF.stl"


Feature line extraction is only valid on closed manifold surfaces.
Statistics:
Triangles    : 396
Vertices     : 200
Bounding Box : (-0.008 -0.003 -0.008) (0.008 0.007 0.008)


Constructing feature set from included angle 120
Selecting edges purely based on geometric tests: no

Initial feature set:
    feature points : 0
    feature edges  : 200
    of which
        region edges   : 0
        external edges : 200
        internal edges : 0


Final feature set:
points      : 200
edges       : 200
boundingBox : (-0.008 -0.003 -0.008) (0.008 0.007 0.008)
point classification :
    convex feature points          :        0
    concave feature points         :        0
    mixed feature points           :        0
    other (non-feature) points     :      200
edge classification :
    external (convex angle) edges  :      200
    internal (concave angle) edges :        0
    flat region edges              :        0
    open edges                     :        0
    multiply connected edges       :        0

Writing extendedFeatureEdgeMesh to "constant/extendedFeatureEdgeMesh/RF.extendedFeatureEdgeMesh"

Writing featureEdgeMesh to "constant/triSurface/RF.eMesh"

Surface            : "stirrer.stl"


Feature line extraction is only valid on closed manifold surfaces.
Statistics:
Triangles    : 1186
Vertices     : 595
Bounding Box : (-0.00595701 -0.002 -0.0068119) (0.007 0.052 0.0068119)


Constructing feature set from included angle 120
Selecting edges purely based on geometric tests: no

Initial feature set:
    feature points : 40
    feature edges  : 113
    of which
        region edges   : 0
        external edges : 73
        internal edges : 40


Final feature set:
points      : 93
edges       : 113
boundingBox : (-0.00595701 0.000910833 -0.0068119) (0.007 0.052 0.0068119)
point classification :
    convex feature points          :       20
    concave feature points         :        0
    mixed feature points           :       20
    other (non-feature) points     :       53
edge classification :
    external (convex angle) edges  :       73
    internal (concave angle) edges :       40
    flat region edges              :        0
    open edges                     :        0
    multiply connected edges       :        0

Writing extendedFeatureEdgeMesh to "constant/extendedFeatureEdgeMesh/stirrer.extendedFeatureEdgeMesh"

Writing featureEdgeMesh to "constant/triSurface/stirrer.eMesh"

Surface            : "wall1.stl"


Feature line extraction is only valid on closed manifold surfaces.
Statistics:
Triangles    : 1324
Vertices     : 662
Bounding Box : (-0.0149995 -1.21543e-17 -0.0149951) (0.0149951 0.052 0.0149992)


Constructing feature set from included angle 120
Selecting edges purely based on geometric tests: no

Initial feature set:
    feature points : 0
    feature edges  : 332
    of which
        region edges   : 0
        external edges : 332
        internal edges : 0


Final feature set:
points      : 332
edges       : 332
boundingBox : (-0.0149951 -1.21543e-17 -0.0149951) (0.0149951 0.052 0.0149951)
point classification :
    convex feature points          :        0
    concave feature points         :        0
    mixed feature points           :        0
    other (non-feature) points     :      332
edge classification :
    external (convex angle) edges  :      332
    internal (concave angle) edges :        0
    flat region edges              :        0
    open edges                     :        0
    multiply connected edges       :        0

Writing extendedFeatureEdgeMesh to "constant/extendedFeatureEdgeMesh/wall1.extendedFeatureEdgeMesh"

Writing featureEdgeMesh to "constant/triSurface/wall1.eMesh"

Surface            : "bottom.stl"


Feature line extraction is only valid on closed manifold surfaces.
Statistics:
Triangles    : 5518
Vertices     : 2761
Bounding Box : (-0.0149999 -0.00799829 -0.0149999) (0.0149999 5.89806e-17 0.0149999)


Constructing feature set from included angle 120
Selecting edges purely based on geometric tests: no

Initial feature set:
    feature points : 0
    feature edges  : 205
    of which
        region edges   : 0
        external edges : 205
        internal edges : 0


Final feature set:
points      : 205
edges       : 205
boundingBox : (-0.0149999 3.46945e-17 -0.0149999) (0.0149999 5.89806e-17 0.0149999)
point classification :
    convex feature points          :        0
    concave feature points         :        0
    mixed feature points           :        0
    other (non-feature) points     :      205
edge classification :
    external (convex angle) edges  :      205
    internal (concave angle) edges :        0
    flat region edges              :        0
    open edges                     :        0
    multiply connected edges       :        0

Writing extendedFeatureEdgeMesh to "constant/extendedFeatureEdgeMesh/bottom.extendedFeatureEdgeMesh"

Writing featureEdgeMesh to "constant/triSurface/bottom.eMesh"

ExecutionTime = 0.06 s  ClockTime = 0 s

End

