/*---------------------------------------------------------------------------*\
  =========                 |
  \\      /  F ield         | OpenFOAM: The Open Source CFD Toolbox
   \\    /   O peration     | Website:  https://openfoam.org
    \\  /    A nd           | Version:  8
     \\/     M anipulation  |
\*---------------------------------------------------------------------------*/
Build  : 8-1c9b5879390b
Exec   : pimpleGrow
Date   : Aug 16 2021
Time   : 16:33:16
Host   : "Lukasinator"
PID    : 26362
I/O    : uncollated
Case   : /home/lukas/000_MA/programming_experiments/03_pipmpleGrow/testCase
nProcs : 1
sigFpe : Enabling floating point exception trapping (FOAM_SIGFPE).
fileModificationChecking : Monitoring run-time modified files using timeStampMaster (fileModificationSkew 10)
allowSystemOperations : Allowing user-supplied system call operations

// * * * * * * * * * * * * * * * * * * * * * * * * * * * * * * * * * * * * * //
Create time

Create mesh for time = 0

Selecting dynamicFvMesh dynamicMotionSolverFvMesh
Selecting motion solver: multiSolidBodyMotionSolver
Selecting solid-body motion function rotatingMotion
Applying solid body motion rotatingMotion to 5549 points of cellZone MRF1

PIMPLE: Convergence criteria found
        p: tolerance 0.01
        U: tolerance 0.001
        "(k|omega)": tolerance 0.001


PIMPLE: Operating solver in steady-state mode with 1 outer corrector
PIMPLE: Operating solver in SIMPLE mode


Reading field p

Reading field U

Reading field N



--> FOAM FATAL IO ERROR: 
problem while reading header for object N

file: /home/lukas/000_MA/programming_experiments/03_pipmpleGrow/testCase/0/N at line 1.

    From function virtual Foam::autoPtr<Foam::ISstream> Foam::fileOperations::uncollatedFileOperation::readStream(Foam::regIOobject&, const Foam::fileName&, const Foam::word&, bool) const
    in file global/fileOperations/uncollatedFileOperation/uncollatedFileOperation.C at line 559.

FOAM exiting

